version 3
run D2DMulticast-1to2-0-20241122-21:17:35-2208
attr configname D2DMulticast-1to2
attr datetime 20241122-21:17:35
attr datetimef 20241122-211735
attr experiment D2DMulticast-1to2
attr inifile omnetpp.ini
attr iterationvars ""
attr iterationvarsd ""
attr iterationvarsf ""
attr measurement ""
attr network _4gltefinal.simulations.CombinedNetwork
attr processid 2208
attr repetition 0
attr replication #0
attr resultdir results
attr runnumber 0
attr seedset 0
config image-path ../../inet4.5/images;../../simu5g/images
config network _4gltefinal.simulations.CombinedNetwork
config *.eNB.mobility.initFromDisplayString false
config *.eNB.mobility.initialX 300m
config *.eNB.mobility.initialY 300m
config *.numUeCell 0
config *.numUeD2D 3
config *.ue*[*].macCellId 1
config *.ue*[*].masterId 1
config *.ue*[*].mobility.initFromDisplayString false
config *.ueD2D[0].mobility.initialX 290m
config *.ueD2D[0].mobility.initialY 350m
config *.ueD2D[1].mobility.initialX 310m
config *.ueD2D[1].mobility.initialY 350m
config *.ueD2D[2].mobility.initialX 330m
config *.ueD2D[2].mobility.initialY 350m
config *.eNB*.nicType "\"LteNicEnbD2D\""
config *.ueD2D*[*].nicType "\"LteNicUeD2D\""
config **.amcMode "\"D2D\""
config **.usePreconfiguredTxParams true
config **.d2dCqi 7
config *.ueD2D[*].numApps 1
config *.ueD2D[0].app[*].typename AlertSender
config *.ueD2D[0].app[*].localPort 3088+ancestorIndex(0)
config *.ueD2D[0].app[*].startTime uniform(0s,0.02s)
config *.ueD2D[0].app[*].stopTime 4.9s
config *.ueD2D[0].app[*].destAddress "\"224.0.0.10\""
config *.ueD2D[0].app[*].destPort 1000
config *.ueD2D[1..2].app[*].typename AlertReceiver
config *.ueD2D[1..2].app[*].localPort 1000
config image-path ../../images
config sim-time-limit 20s
config warmup-period 0s
config repeat 3
config debug-on-errors false
config **.routingRecorder.enabled false
config output-scalar-file results/D2DMulticast-1to2/0.sca
config output-vector-file results/D2DMulticast-1to2/0.vec
config seed-set 0
config **.vector-recording false
config **.mobility.constraintAreaMinZ 0m
config **.mobility.constraintAreaMaxZ 0m
config **.mobility.initFromDisplayString true
config **.numBands 50
config **.fbPeriod 500
config **.cellularNic.channelModel[0].shadowing false
config **.cellularNic.channelModel[0].fading false
config *.configurator.config "xmldoc(\"./demo.xml\")"

par CombinedNetwork.router.pppg$o[0].channel typename "\"inet.node.ethernet.Eth10G\""
par CombinedNetwork.router.pppg$o[0].channel disabled false
attr mutable ""
par CombinedNetwork.router.pppg$o[0].channel delay 5e-08s
attr mutable ""
attr unit s
par CombinedNetwork.router.pppg$o[0].channel datarate 1e+10bps
attr mutable ""
attr unit bps
par CombinedNetwork.router.pppg$o[0].channel ber 0
attr mutable ""
par CombinedNetwork.router.pppg$o[0].channel per 0
attr mutable ""
par CombinedNetwork.router.pppg$o[0].channel length 10m
attr unit m
par CombinedNetwork.pgw.filterGate$o.channel typename "\"inet.node.ethernet.Eth10G\""
par CombinedNetwork.pgw.filterGate$o.channel disabled false
attr mutable ""
par CombinedNetwork.pgw.filterGate$o.channel delay 5e-08s
attr mutable ""
attr unit s
par CombinedNetwork.pgw.filterGate$o.channel datarate 1e+10bps
attr mutable ""
attr unit bps
par CombinedNetwork.pgw.filterGate$o.channel ber 0
attr mutable ""
par CombinedNetwork.pgw.filterGate$o.channel per 0
attr mutable ""
par CombinedNetwork.pgw.filterGate$o.channel length 10m
attr unit m
par CombinedNetwork.pgw.pppg$o[0].channel typename "\"inet.node.ethernet.Eth10G\""
par CombinedNetwork.pgw.pppg$o[0].channel disabled false
attr mutable ""
par CombinedNetwork.pgw.pppg$o[0].channel delay 5e-08s
attr mutable ""
attr unit s
par CombinedNetwork.pgw.pppg$o[0].channel datarate 1e+10bps
attr mutable ""
attr unit bps
par CombinedNetwork.pgw.pppg$o[0].channel ber 0
attr mutable ""
par CombinedNetwork.pgw.pppg$o[0].channel per 0
attr mutable ""
par CombinedNetwork.pgw.pppg$o[0].channel length 10m
attr unit m
par CombinedNetwork.eNodeB1.ppp$o.channel typename "\"inet.node.ethernet.Eth10G\""
par CombinedNetwork.eNodeB1.ppp$o.channel disabled false
attr mutable ""
par CombinedNetwork.eNodeB1.ppp$o.channel delay 5e-08s
attr mutable ""
attr unit s
par CombinedNetwork.eNodeB1.ppp$o.channel datarate 1e+10bps
attr mutable ""
attr unit bps
par CombinedNetwork.eNodeB1.ppp$o.channel ber 0
attr mutable ""
par CombinedNetwork.eNodeB1.ppp$o.channel per 0
attr mutable ""
par CombinedNetwork.eNodeB1.ppp$o.channel length 10m
attr unit m
par CombinedNetwork.pgw.pppg$o[1].channel typename "\"inet.node.ethernet.Eth10G\""
par CombinedNetwork.pgw.pppg$o[1].channel disabled false
attr mutable ""
par CombinedNetwork.pgw.pppg$o[1].channel delay 5e-08s
attr mutable ""
attr unit s
par CombinedNetwork.pgw.pppg$o[1].channel datarate 1e+10bps
attr mutable ""
attr unit bps
par CombinedNetwork.pgw.pppg$o[1].channel ber 0
attr mutable ""
par CombinedNetwork.pgw.pppg$o[1].channel per 0
attr mutable ""
par CombinedNetwork.pgw.pppg$o[1].channel length 10m
attr unit m
par CombinedNetwork.eNodeB2.ppp$o.channel typename "\"inet.node.ethernet.Eth10G\""
par CombinedNetwork.eNodeB2.ppp$o.channel disabled false
attr mutable ""
par CombinedNetwork.eNodeB2.ppp$o.channel delay 5e-08s
attr mutable ""
attr unit s
par CombinedNetwork.eNodeB2.ppp$o.channel datarate 1e+10bps
attr mutable ""
attr unit bps
par CombinedNetwork.eNodeB2.ppp$o.channel ber 0
attr mutable ""
par CombinedNetwork.eNodeB2.ppp$o.channel per 0
attr mutable ""
par CombinedNetwork.eNodeB2.ppp$o.channel length 10m
attr unit m
par CombinedNetwork.pgw.pppg$o[2].channel typename "\"inet.node.ethernet.Eth10G\""
par CombinedNetwork.pgw.pppg$o[2].channel disabled false
attr mutable ""
par CombinedNetwork.pgw.pppg$o[2].channel delay 5e-08s
attr mutable ""
attr unit s
par CombinedNetwork.pgw.pppg$o[2].channel datarate 1e+10bps
attr mutable ""
attr unit bps
par CombinedNetwork.pgw.pppg$o[2].channel ber 0
attr mutable ""
par CombinedNetwork.pgw.pppg$o[2].channel per 0
attr mutable ""
par CombinedNetwork.pgw.pppg$o[2].channel length 10m
attr unit m
par CombinedNetwork.eNodeB3.ppp$o.channel typename "\"inet.node.ethernet.Eth10G\""
par CombinedNetwork.eNodeB3.ppp$o.channel disabled false
attr mutable ""
par CombinedNetwork.eNodeB3.ppp$o.channel delay 5e-08s
attr mutable ""
attr unit s
par CombinedNetwork.eNodeB3.ppp$o.channel datarate 1e+10bps
attr mutable ""
attr unit bps
par CombinedNetwork.eNodeB3.ppp$o.channel ber 0
attr mutable ""
par CombinedNetwork.eNodeB3.ppp$o.channel per 0
attr mutable ""
par CombinedNetwork.eNodeB3.ppp$o.channel length 10m
attr unit m
par CombinedNetwork.pgw.pppg$o[3].channel typename "\"inet.node.ethernet.Eth10G\""
par CombinedNetwork.pgw.pppg$o[3].channel disabled false
attr mutable ""
par CombinedNetwork.pgw.pppg$o[3].channel delay 5e-08s
attr mutable ""
attr unit s
par CombinedNetwork.pgw.pppg$o[3].channel datarate 1e+10bps
attr mutable ""
attr unit bps
par CombinedNetwork.pgw.pppg$o[3].channel ber 0
attr mutable ""
par CombinedNetwork.pgw.pppg$o[3].channel per 0
attr mutable ""
par CombinedNetwork.pgw.pppg$o[3].channel length 10m
attr unit m
par CombinedNetwork.eNodeB4.ppp$o.channel typename "\"inet.node.ethernet.Eth10G\""
par CombinedNetwork.eNodeB4.ppp$o.channel disabled false
attr mutable ""
par CombinedNetwork.eNodeB4.ppp$o.channel delay 5e-08s
attr mutable ""
attr unit s
par CombinedNetwork.eNodeB4.ppp$o.channel datarate 1e+10bps
attr mutable ""
attr unit bps
par CombinedNetwork.eNodeB4.ppp$o.channel ber 0
attr mutable ""
par CombinedNetwork.eNodeB4.ppp$o.channel per 0
attr mutable ""
par CombinedNetwork.eNodeB4.ppp$o.channel length 10m
attr unit m
par CombinedNetwork.pgw.pppg$o[4].channel typename "\"inet.node.ethernet.Eth10G\""
par CombinedNetwork.pgw.pppg$o[4].channel disabled false
attr mutable ""
par CombinedNetwork.pgw.pppg$o[4].channel delay 5e-08s
attr mutable ""
attr unit s
par CombinedNetwork.pgw.pppg$o[4].channel datarate 1e+10bps
attr mutable ""
attr unit bps
par CombinedNetwork.pgw.pppg$o[4].channel ber 0
attr mutable ""
par CombinedNetwork.pgw.pppg$o[4].channel per 0
attr mutable ""
par CombinedNetwork.pgw.pppg$o[4].channel length 10m
attr unit m
par CombinedNetwork.eNodeB5.ppp$o.channel typename "\"inet.node.ethernet.Eth10G\""
par CombinedNetwork.eNodeB5.ppp$o.channel disabled false
attr mutable ""
par CombinedNetwork.eNodeB5.ppp$o.channel delay 5e-08s
attr mutable ""
attr unit s
par CombinedNetwork.eNodeB5.ppp$o.channel datarate 1e+10bps
attr mutable ""
attr unit bps
par CombinedNetwork.eNodeB5.ppp$o.channel ber 0
attr mutable ""
par CombinedNetwork.eNodeB5.ppp$o.channel per 0
attr mutable ""
par CombinedNetwork.eNodeB5.ppp$o.channel length 10m
attr unit m
par CombinedNetwork.server.pppg$o[0].channel typename "\"inet.node.ethernet.Eth10G\""
par CombinedNetwork.server.pppg$o[0].channel disabled false
attr mutable ""
par CombinedNetwork.server.pppg$o[0].channel delay 5e-08s
attr mutable ""
attr unit s
par CombinedNetwork.server.pppg$o[0].channel datarate 1e+10bps
attr mutable ""
attr unit bps
par CombinedNetwork.server.pppg$o[0].channel ber 0
attr mutable ""
par CombinedNetwork.server.pppg$o[0].channel per 0
attr mutable ""
par CombinedNetwork.server.pppg$o[0].channel length 10m
attr unit m
par CombinedNetwork.router.pppg$o[1].channel typename "\"inet.node.ethernet.Eth10G\""
par CombinedNetwork.router.pppg$o[1].channel disabled false
attr mutable ""
par CombinedNetwork.router.pppg$o[1].channel delay 5e-08s
attr mutable ""
attr unit s
par CombinedNetwork.router.pppg$o[1].channel datarate 1e+10bps
attr mutable ""
attr unit bps
par CombinedNetwork.router.pppg$o[1].channel ber 0
attr mutable ""
par CombinedNetwork.router.pppg$o[1].channel per 0
attr mutable ""
par CombinedNetwork.router.pppg$o[1].channel length 10m
attr unit m
par CombinedNetwork.eNodeB1.x2$o[0].channel typename "\"inet.node.ethernet.Eth10G\""
par CombinedNetwork.eNodeB1.x2$o[0].channel disabled false
attr mutable ""
par CombinedNetwork.eNodeB1.x2$o[0].channel delay 5e-08s
attr mutable ""
attr unit s
par CombinedNetwork.eNodeB1.x2$o[0].channel datarate 1e+10bps
attr mutable ""
attr unit bps
par CombinedNetwork.eNodeB1.x2$o[0].channel ber 0
attr mutable ""
par CombinedNetwork.eNodeB1.x2$o[0].channel per 0
attr mutable ""
par CombinedNetwork.eNodeB1.x2$o[0].channel length 10m
attr unit m
par CombinedNetwork.eNodeB2.x2$o[0].channel typename "\"inet.node.ethernet.Eth10G\""
par CombinedNetwork.eNodeB2.x2$o[0].channel disabled false
attr mutable ""
par CombinedNetwork.eNodeB2.x2$o[0].channel delay 5e-08s
attr mutable ""
attr unit s
par CombinedNetwork.eNodeB2.x2$o[0].channel datarate 1e+10bps
attr mutable ""
attr unit bps
par CombinedNetwork.eNodeB2.x2$o[0].channel ber 0
attr mutable ""
par CombinedNetwork.eNodeB2.x2$o[0].channel per 0
attr mutable ""
par CombinedNetwork.eNodeB2.x2$o[0].channel length 10m
attr unit m
par CombinedNetwork.eNodeB1.x2$o[1].channel typename "\"inet.node.ethernet.Eth10G\""
par CombinedNetwork.eNodeB1.x2$o[1].channel disabled false
attr mutable ""
par CombinedNetwork.eNodeB1.x2$o[1].channel delay 5e-08s
attr mutable ""
attr unit s
par CombinedNetwork.eNodeB1.x2$o[1].channel datarate 1e+10bps
attr mutable ""
attr unit bps
par CombinedNetwork.eNodeB1.x2$o[1].channel ber 0
attr mutable ""
par CombinedNetwork.eNodeB1.x2$o[1].channel per 0
attr mutable ""
par CombinedNetwork.eNodeB1.x2$o[1].channel length 10m
attr unit m
par CombinedNetwork.eNodeB3.x2$o[0].channel typename "\"inet.node.ethernet.Eth10G\""
par CombinedNetwork.eNodeB3.x2$o[0].channel disabled false
attr mutable ""
par CombinedNetwork.eNodeB3.x2$o[0].channel delay 5e-08s
attr mutable ""
attr unit s
par CombinedNetwork.eNodeB3.x2$o[0].channel datarate 1e+10bps
attr mutable ""
attr unit bps
par CombinedNetwork.eNodeB3.x2$o[0].channel ber 0
attr mutable ""
par CombinedNetwork.eNodeB3.x2$o[0].channel per 0
attr mutable ""
par CombinedNetwork.eNodeB3.x2$o[0].channel length 10m
attr unit m
par CombinedNetwork.eNodeB2.x2$o[1].channel typename "\"inet.node.ethernet.Eth10G\""
par CombinedNetwork.eNodeB2.x2$o[1].channel disabled false
attr mutable ""
par CombinedNetwork.eNodeB2.x2$o[1].channel delay 5e-08s
attr mutable ""
attr unit s
par CombinedNetwork.eNodeB2.x2$o[1].channel datarate 1e+10bps
attr mutable ""
attr unit bps
par CombinedNetwork.eNodeB2.x2$o[1].channel ber 0
attr mutable ""
par CombinedNetwork.eNodeB2.x2$o[1].channel per 0
attr mutable ""
par CombinedNetwork.eNodeB2.x2$o[1].channel length 10m
attr unit m
par CombinedNetwork.eNodeB3.x2$o[1].channel typename "\"inet.node.ethernet.Eth10G\""
par CombinedNetwork.eNodeB3.x2$o[1].channel disabled false
attr mutable ""
par CombinedNetwork.eNodeB3.x2$o[1].channel delay 5e-08s
attr mutable ""
attr unit s
par CombinedNetwork.eNodeB3.x2$o[1].channel datarate 1e+10bps
attr mutable ""
attr unit bps
par CombinedNetwork.eNodeB3.x2$o[1].channel ber 0
attr mutable ""
par CombinedNetwork.eNodeB3.x2$o[1].channel per 0
attr mutable ""
par CombinedNetwork.eNodeB3.x2$o[1].channel length 10m
attr unit m
par CombinedNetwork.channelControl typename "\"simu5g.world.radio.LteChannelControl\""
par CombinedNetwork.channelControl coreDebug false
par CombinedNetwork.channelControl pMax 20mW
attr unit mW
par CombinedNetwork.channelControl sat -110dBm
attr unit dBm
par CombinedNetwork.channelControl alpha 2
par CombinedNetwork.channelControl carrierFrequency 2.4e+09Hz
attr unit Hz
par CombinedNetwork.channelControl numChannels 1
par CombinedNetwork.channelControl propagationModel "\"FreeSpaceModel\""
attr enum FreeSpaceModel,TwoRayGroundModel,RiceModel,RayleighModel,NakagamiModel,LogNormalShadowingModel
par CombinedNetwork.routingRecorder typename "\"inet.networklayer.ipv4.RoutingTableRecorder\""
par CombinedNetwork.routingRecorder enabled false
par CombinedNetwork.configurator typename "\"inet.networklayer.configurator.ipv4.Ipv4NetworkConfigurator\""
par CombinedNetwork.configurator minLinkWeight 0.001
par CombinedNetwork.configurator configureIsolatedNetworksSeparatly false
par CombinedNetwork.configurator config "<config>...</config> at C:/Users/clayyClown/Documents/omnetpp-6.0.3/projects/4GLteFinal/simulations/\\./demo.xml:1"
par CombinedNetwork.configurator assignAddresses true
par CombinedNetwork.configurator assignUniqueAddresses true
par CombinedNetwork.configurator assignDisjunctSubnetAddresses true
par CombinedNetwork.configurator addStaticRoutes true
par CombinedNetwork.configurator addDefaultRoutes true
par CombinedNetwork.configurator addSubnetRoutes true
par CombinedNetwork.configurator addDirectRoutes true
par CombinedNetwork.configurator optimizeRoutes true
par CombinedNetwork.configurator dumpTopology false
par CombinedNetwork.configurator dumpLinks false
par CombinedNetwork.configurator dumpAddresses false
par CombinedNetwork.configurator dumpRoutes false
par CombinedNetwork.configurator dumpConfig "\"\""
par CombinedNetwork.binder typename "\"simu5g.common.binder.Binder\""
par CombinedNetwork.binder blerShift 0
par CombinedNetwork.binder maxDataRatePerRb 1.16Mbps
attr unit Mbps
par CombinedNetwork.binder printTrafficGeneratorConfig false
par CombinedNetwork.carrierAggregation.componentCarrier[0] typename "\"simu5g.common.carrierAggregation.ComponentCarrier\""
par CombinedNetwork.carrierAggregation.componentCarrier[0] carrierFrequency 2GHz
attr unit GHz
par CombinedNetwork.carrierAggregation.componentCarrier[0] numBands 50
par CombinedNetwork.carrierAggregation.componentCarrier[0] numerologyIndex 0
par CombinedNetwork.carrierAggregation.componentCarrier[0] useTdd false
par CombinedNetwork.carrierAggregation.componentCarrier[0] tddNumSymbolsDl 7
par CombinedNetwork.carrierAggregation.componentCarrier[0] tddNumSymbolsUl 7
par CombinedNetwork.carrierAggregation typename "\"simu5g.common.carrierAggregation.CarrierAggregation\""
par CombinedNetwork.carrierAggregation numComponentCarriers 1
par CombinedNetwork.server.pppg$i[0].channel typename "\"ned.IdealChannel\""
par CombinedNetwork.server.ppp[0].phys$o.channel typename "\"ned.IdealChannel\""
par CombinedNetwork.server.interfaceTable typename "\"inet.networklayer.common.InterfaceTable\""
par CombinedNetwork.server.interfaceTable displayAddresses false
par CombinedNetwork.server.cb typename "\"inet.common.MessageDispatcher\""
par CombinedNetwork.server.cb displayStringTextFormat "\"processed %p pk (%l)\""
par CombinedNetwork.server.cb forwardServiceRegistration true
par CombinedNetwork.server.cb forwardProtocolRegistration true
par CombinedNetwork.server.bl typename "\"inet.common.MessageDispatcher\""
par CombinedNetwork.server.bl displayStringTextFormat "\"processed %p pk (%l)\""
par CombinedNetwork.server.bl forwardServiceRegistration true
par CombinedNetwork.server.bl forwardProtocolRegistration true
par CombinedNetwork.server.li typename "\"inet.common.MessageDispatcher\""
par CombinedNetwork.server.li displayStringTextFormat "\"processed %p pk (%l)\""
par CombinedNetwork.server.li forwardServiceRegistration true
par CombinedNetwork.server.li forwardProtocolRegistration true
par CombinedNetwork.server.lo[0].upperLayerIn.channel typename "\"ned.IdealChannel\""
par CombinedNetwork.server.lo[0].lo.upperLayerOut.channel typename "\"ned.IdealChannel\""
par CombinedNetwork.server.lo[0].lo typename "\"inet.linklayer.loopback.Loopback\""
par CombinedNetwork.server.lo[0].lo interfaceTableModule "\"CombinedNetwork.server.interfaceTable\""
par CombinedNetwork.server.lo[0].lo mtu 4470B
attr unit B
scalar CombinedNetwork.server.lo[0].lo rcvdPkFromHl:count 0
attr interpolationmode none
attr recordingmode count
attr source packetReceivedFromUpper
attr title "packets received from higher layer, count"
scalar CombinedNetwork.server.lo[0].lo rcvdPkFromHl:sum(packetBytes) 0
attr interpolationmode none
attr recordingmode sum(packetBytes)
attr source packetReceivedFromUpper
attr title "packets received from higher layer, sum(packetBytes)"
scalar CombinedNetwork.server.lo[0].lo passedUpPk:count 0
attr interpolationmode none
attr recordingmode count
attr source packetSentToUpper
attr title "packets passed to higher layer, count"
scalar CombinedNetwork.server.lo[0].lo passedUpPk:sum(packetBytes) 0
attr interpolationmode none
attr recordingmode sum(packetBytes)
attr source packetSentToUpper
attr title "packets passed to higher layer, sum(packetBytes)"
par CombinedNetwork.server.lo[0] typename "\"inet.linklayer.loopback.LoopbackInterface\""
par CombinedNetwork.server.lo[0] displayStringTextFormat "\"%a (%i)\\n%m\""
par CombinedNetwork.server.lo[0] recordPcap false
par CombinedNetwork.server.lo[0] numPcapRecorders 0
par CombinedNetwork.server.lo[0] interfaceTableModule "\"CombinedNetwork.server.interfaceTable\""
scalar CombinedNetwork.server.lo[0] packetDropInterfaceDown:count 0
attr interpolationmode none
attr recordingmode count
attr source packetDropReasonIsInterfaceDown(packetDropped)
attr title "packet drops: interface down, count"
scalar CombinedNetwork.server.lo[0] packetDropInterfaceDown:sum(packetBytes) 0
attr interpolationmode none
attr recordingmode sum(packetBytes)
attr source packetDropReasonIsInterfaceDown(packetDropped)
attr title "packet drops: interface down, sum(packetBytes)"
scalar CombinedNetwork.server.lo[0] packetDropNoCarrier:count 0
attr interpolationmode none
attr recordingmode count
attr source packetDropReasonIsNoCarrier(packetDropped)
attr title "packet drops: no carrier, count"
scalar CombinedNetwork.server.lo[0] packetDropNoCarrier:sum(packetBytes) 0
attr interpolationmode none
attr recordingmode sum(packetBytes)
attr source packetDropReasonIsNoCarrier(packetDropped)
attr title "packet drops: no carrier, sum(packetBytes)"
par CombinedNetwork.server.ppp[0].phys$i.channel typename "\"ned.IdealChannel\""
par CombinedNetwork.server.ppp[0].ppp.phys$o.channel typename "\"ned.IdealChannel\""
par CombinedNetwork.server.ppp[0].ppp.upperLayerOut.channel typename "\"ned.IdealChannel\""
par CombinedNetwork.server.ppp[0].upperLayerIn.channel typename "\"ned.IdealChannel\""
par CombinedNetwork.server.ppp[0].ingressTC typename "\"inet.queueing.shaper.OmittedTrafficConditioner\""
par CombinedNetwork.server.ppp[0].egressTC typename "\"inet.queueing.shaper.OmittedTrafficConditioner\""
par CombinedNetwork.server.ppp[0].queue typename "\"inet.queueing.queue.DropTailQueue\""
par CombinedNetwork.server.ppp[0].queue displayStringTextFormat "\"contains %p pk (%l) pushed %u\\npulled %o removed %r dropped %d\""
par CombinedNetwork.server.ppp[0].queue packetCapacity 10000
par CombinedNetwork.server.ppp[0].queue dataCapacity -1b
attr unit b
par CombinedNetwork.server.ppp[0].queue dropperClass "\"inet::queueing::PacketAtCollectionEndDropper\""
par CombinedNetwork.server.ppp[0].queue comparatorClass "\"\""
par CombinedNetwork.server.ppp[0].queue bufferModule "\"\""
scalar CombinedNetwork.server.ppp[0].queue queueLength:last 0
attr autoWarmupFilter false
attr interpolationmode sample-hold
attr recordingmode last
attr source "warmup(atomic(constant0(packetPushEnded) + count(packetPushStarted) - count(packetPulled) - count(packetRemoved) - count(packetDropped)))"
attr title "queue length, last"
attr unit pk
scalar CombinedNetwork.server.ppp[0].queue queueLength:max 0
attr autoWarmupFilter false
attr interpolationmode sample-hold
attr recordingmode max
attr source "warmup(atomic(constant0(packetPushEnded) + count(packetPushStarted) - count(packetPulled) - count(packetRemoved) - count(packetDropped)))"
attr title "queue length, max"
attr unit pk
scalar CombinedNetwork.server.ppp[0].queue queueLength:timeavg nan
attr autoWarmupFilter false
attr interpolationmode sample-hold
attr recordingmode timeavg
attr source "warmup(atomic(constant0(packetPushEnded) + count(packetPushStarted) - count(packetPulled) - count(packetRemoved) - count(packetDropped)))"
attr title "queue length, timeavg"
attr unit pk
scalar CombinedNetwork.server.ppp[0].queue queueBitLength:last 0
attr autoWarmupFilter false
attr interpolationmode sample-hold
attr recordingmode last
attr source "warmup(atomic(constant0(packetPushEnded) + sum(packetLength(packetPushStarted)) - sum(packetLength(packetPulled)) - sum(packetLength(packetRemoved)) - sum(packetLength(packetDropped))))"
attr title "queue bit length, last"
attr unit b
scalar CombinedNetwork.server.ppp[0].queue queueBitLength:max 0
attr autoWarmupFilter false
attr interpolationmode sample-hold
attr recordingmode max
attr source "warmup(atomic(constant0(packetPushEnded) + sum(packetLength(packetPushStarted)) - sum(packetLength(packetPulled)) - sum(packetLength(packetRemoved)) - sum(packetLength(packetDropped))))"
attr title "queue bit length, max"
attr unit b
scalar CombinedNetwork.server.ppp[0].queue queueBitLength:timeavg nan
attr autoWarmupFilter false
attr interpolationmode sample-hold
attr recordingmode timeavg
attr source "warmup(atomic(constant0(packetPushEnded) + sum(packetLength(packetPushStarted)) - sum(packetLength(packetPulled)) - sum(packetLength(packetRemoved)) - sum(packetLength(packetDropped))))"
attr title "queue bit length, timeavg"
attr unit b
statistic CombinedNetwork.server.ppp[0].queue queueingTime:histogram
field count 0
field mean nan
field stddev nan
field min nan
field max nan
field sum 0
field sqrsum 0
attr interpolationmode none
attr recordingmode histogram
attr source queueingTime(packetPulled)
attr title "queueing times"
attr unit s
bin	-inf	0
bin	0	0
bin	1	0
scalar CombinedNetwork.server.ppp[0].queue outgoingPackets:count 0
attr recordingmode count
attr source packetPulled
attr title "outgoing packets, count"
attr unit pk
scalar CombinedNetwork.server.ppp[0].queue outgoingPacketLengths:sum 0
attr interpolationmode none
attr recordingmode sum
attr source packetLength(packetPulled)
attr title "outgoing packet lengths, sum"
attr unit b
statistic CombinedNetwork.server.ppp[0].queue outgoingPacketLengths:histogram
field count 0
field mean nan
field stddev nan
field min nan
field max nan
field sum 0
field sqrsum 0
attr interpolationmode none
attr recordingmode histogram
attr source packetLength(packetPulled)
attr title "outgoing packet lengths"
attr unit b
bin	-inf	0
bin	0	0
bin	1	0
statistic CombinedNetwork.server.ppp[0].queue flowQueueingTime:histogram
field count 0
field mean nan
field stddev nan
field min nan
field max nan
field sum 0
field sqrsum 0
attr interpolationmode none
attr recordingmode histogram
attr source queueingTime(demuxFlow(packetPulled))
attr title "flow queueing times"
attr unit s
bin	-inf	0
bin	0	0
bin	1	0
scalar CombinedNetwork.server.ppp[0].queue incomingPackets:count 0
attr recordingmode count
attr source packetPushStarted
attr title "incoming packets, count"
attr unit pk
scalar CombinedNetwork.server.ppp[0].queue incomingPacketLengths:sum 0
attr interpolationmode none
attr recordingmode sum
attr source packetLength(packetPushStarted)
attr title "incoming packet lengths, sum"
attr unit b
statistic CombinedNetwork.server.ppp[0].queue incomingPacketLengths:histogram
field count 0
field mean nan
field stddev nan
field min nan
field max nan
field sum 0
field sqrsum 0
attr interpolationmode none
attr recordingmode histogram
attr source packetLength(packetPushStarted)
attr title "incoming packet lengths"
attr unit b
bin	-inf	0
bin	0	0
bin	1	0
scalar CombinedNetwork.server.ppp[0].queue droppedPacketsQueueOverflow:count 0
attr interpolationmode none
attr recordingmode count
attr source packetDropReasonIsQueueOverflow(packetDropped)
attr title "dropped packets: queue overflow, count"
attr unit pk
scalar CombinedNetwork.server.ppp[0].queue droppedPacketLengthsQueueOverflow:sum 0
attr interpolationmode none
attr recordingmode sum
attr source packetLength(packetDropReasonIsQueueOverflow(packetDropped))
attr title "dropped packet lengths: queue overflow, sum"
attr unit b
par CombinedNetwork.server.ppp[0].ppp typename "\"inet.linklayer.ppp.Ppp\""
par CombinedNetwork.server.ppp[0].ppp interfaceTableModule "\"CombinedNetwork.server.interfaceTable\""
par CombinedNetwork.server.ppp[0].ppp displayStringTextFormat "\"rate: %b\\nsent: %s, rcvd: %r\\nqueue: %q, drop: %d\""
par CombinedNetwork.server.ppp[0].ppp sendRawBytes false
par CombinedNetwork.server.ppp[0].ppp mtu 4470B
attr unit B
par CombinedNetwork.server.ppp[0].ppp stopOperationExtraTime -1s
attr unit s
par CombinedNetwork.server.ppp[0].ppp stopOperationTimeout 2s
attr unit s
scalar CombinedNetwork.server.ppp[0].ppp txPk:count 0
attr interpolationmode none
attr recordingmode count
attr source packetSentToLower
attr title "packets transmitted, count"
scalar CombinedNetwork.server.ppp[0].ppp txPk:sum(packetBytes) 0
attr interpolationmode none
attr recordingmode sum(packetBytes)
attr source packetSentToLower
attr title "packets transmitted, sum(packetBytes)"
scalar CombinedNetwork.server.ppp[0].ppp rcvdPkFromHl:count 0
attr interpolationmode none
attr recordingmode count
attr source packetReceivedFromUpper
attr title "packets received from higher layer, count"
scalar CombinedNetwork.server.ppp[0].ppp rcvdPkFromHl:sum(packetBytes) 0
attr interpolationmode none
attr recordingmode sum(packetBytes)
attr source packetReceivedFromUpper
attr title "packets received from higher layer, sum(packetBytes)"
scalar CombinedNetwork.server.ppp[0].ppp passedUpPk:count 0
attr interpolationmode none
attr recordingmode count
attr source packetSentToUpper
attr title "packets passed to higher layer, count"
scalar CombinedNetwork.server.ppp[0].ppp passedUpPk:sum(packetBytes) 0
attr interpolationmode none
attr recordingmode sum(packetBytes)
attr source packetSentToUpper
attr title "packets passed to higher layer, sum(packetBytes)"
scalar CombinedNetwork.server.ppp[0].ppp packetDropIncorrectlyReceived:count 0
attr interpolationmode none
attr recordingmode count
attr source packetDropReasonIsIncorrectlyReceived(packetDropped)
attr title "packet drop: incorrectly received, count"
scalar CombinedNetwork.server.ppp[0].ppp packetDropIncorrectlyReceived:sum(packetBytes) 0
attr interpolationmode none
attr recordingmode sum(packetBytes)
attr source packetDropReasonIsIncorrectlyReceived(packetDropped)
attr title "packet drop: incorrectly received, sum(packetBytes)"
scalar CombinedNetwork.server.ppp[0].ppp packetDropInterfaceDown:count 0
attr interpolationmode none
attr recordingmode count
attr source packetDropReasonIsInterfaceDown(packetDropped)
attr title "packet drop: interface down, count"
scalar CombinedNetwork.server.ppp[0].ppp packetDropInterfaceDown:sum(packetBytes) 0
attr interpolationmode none
attr recordingmode sum(packetBytes)
attr source packetDropReasonIsInterfaceDown(packetDropped)
attr title "packet drop: interface down, sum(packetBytes)"
scalar CombinedNetwork.server.ppp[0].ppp rxPkOk:count 0
attr interpolationmode none
attr recordingmode count
attr source rxPkOk
attr title "packets received OK, count"
scalar CombinedNetwork.server.ppp[0].ppp rxPkOk:sum(packetBytes) 0
attr interpolationmode none
attr recordingmode sum(packetBytes)
attr source rxPkOk
attr title "packets received OK, sum(packetBytes)"
scalar CombinedNetwork.server.ppp[0].ppp transmissionState:timeavg nan
attr interpolationmode sample-hold
attr recordingmode timeavg
attr source transmissionStateChanged
attr title "tx state, timeavg"
par CombinedNetwork.server.ppp[0] typename "\"inet.linklayer.ppp.PppInterface\""
par CombinedNetwork.server.ppp[0] displayStringTextFormat "\"%a (%i)\\n%m\""
par CombinedNetwork.server.ppp[0] recordPcap false
par CombinedNetwork.server.ppp[0] numPcapRecorders 0
par CombinedNetwork.server.ppp[0] interfaceTableModule "\"CombinedNetwork.server.interfaceTable\""
scalar CombinedNetwork.server.ppp[0] packetDropInterfaceDown:count 0
attr interpolationmode none
attr recordingmode count
attr source packetDropReasonIsInterfaceDown(packetDropped)
attr title "packet drops: interface down, count"
scalar CombinedNetwork.server.ppp[0] packetDropInterfaceDown:sum(packetBytes) 0
attr interpolationmode none
attr recordingmode sum(packetBytes)
attr source packetDropReasonIsInterfaceDown(packetDropped)
attr title "packet drops: interface down, sum(packetBytes)"
scalar CombinedNetwork.server.ppp[0] packetDropNoCarrier:count 0
attr interpolationmode none
attr recordingmode count
attr source packetDropReasonIsNoCarrier(packetDropped)
attr title "packet drops: no carrier, count"
scalar CombinedNetwork.server.ppp[0] packetDropNoCarrier:sum(packetBytes) 0
attr interpolationmode none
attr recordingmode sum(packetBytes)
attr source packetDropReasonIsNoCarrier(packetDropped)
attr title "packet drops: no carrier, sum(packetBytes)"
par CombinedNetwork.server.ipv4.transportIn.channel typename "\"ned.IdealChannel\""
par CombinedNetwork.server.ipv4.up.out[0].channel typename "\"ned.IdealChannel\""
par CombinedNetwork.server.ipv4.lp.out[2].channel typename "\"ned.IdealChannel\""
par CombinedNetwork.server.ipv4.ifIn.channel typename "\"ned.IdealChannel\""
par CombinedNetwork.server.ipv4.configurator typename "\"inet.networklayer.configurator.ipv4.Ipv4NodeConfigurator\""
par CombinedNetwork.server.ipv4.configurator interfaceTableModule "\"CombinedNetwork.server.interfaceTable\""
par CombinedNetwork.server.ipv4.configurator routingTableModule "\"CombinedNetwork.server.ipv4.routingTable\""
par CombinedNetwork.server.ipv4.configurator networkConfiguratorModule "\"configurator\""
par CombinedNetwork.server.ipv4.configurator configureRoutingTable true
par CombinedNetwork.server.ipv4.routingTable typename "\"inet.networklayer.ipv4.Ipv4RoutingTable\""
par CombinedNetwork.server.ipv4.routingTable interfaceTableModule "\"CombinedNetwork.server.interfaceTable\""
par CombinedNetwork.server.ipv4.routingTable routerId "\"auto\""
par CombinedNetwork.server.ipv4.routingTable netmaskRoutes "\"*\""
par CombinedNetwork.server.ipv4.routingTable forwarding false
par CombinedNetwork.server.ipv4.routingTable multicastForwarding false
par CombinedNetwork.server.ipv4.routingTable useAdminDist false
par CombinedNetwork.server.ipv4.routingTable routingFile "\"\""
par CombinedNetwork.server.ipv4.natTable typename "\"inet.networklayer.ipv4.Ipv4NatTable\""
par CombinedNetwork.server.ipv4.natTable networkProtocolModule "\"^.ip\""
par CombinedNetwork.server.ipv4.natTable config "<config/> at content:1"
par CombinedNetwork.server.ipv4.up typename "\"inet.common.MessageDispatcher\""
par CombinedNetwork.server.ipv4.up displayStringTextFormat "\"processed %p pk (%l)\""
par CombinedNetwork.server.ipv4.up forwardServiceRegistration true
par CombinedNetwork.server.ipv4.up forwardProtocolRegistration true
par CombinedNetwork.server.ipv4.igmp typename "\"inet.networklayer.ipv4.Igmpv2\""
par CombinedNetwork.server.ipv4.igmp interfaceTableModule "\"CombinedNetwork.server.interfaceTable\""
par CombinedNetwork.server.ipv4.igmp routingTableModule "\"CombinedNetwork.server.ipv4.routingTable\""
par CombinedNetwork.server.ipv4.igmp crcMode "\"declared\""
attr enum declared,computed
par CombinedNetwork.server.ipv4.igmp enabled true
par CombinedNetwork.server.ipv4.igmp robustnessVariable 2
par CombinedNetwork.server.ipv4.igmp queryInterval 125s
attr unit s
par CombinedNetwork.server.ipv4.igmp queryResponseInterval 10s
attr unit s
par CombinedNetwork.server.ipv4.igmp groupMembershipInterval 260s
attr unit s
par CombinedNetwork.server.ipv4.igmp otherQuerierPresentInterval 255s
attr unit s
par CombinedNetwork.server.ipv4.igmp startupQueryInterval 31.25s
attr unit s
par CombinedNetwork.server.ipv4.igmp startupQueryCount 2
par CombinedNetwork.server.ipv4.igmp lastMemberQueryInterval 1s
attr unit s
par CombinedNetwork.server.ipv4.igmp lastMemberQueryCount 2
par CombinedNetwork.server.ipv4.igmp unsolicitedReportInterval 10s
attr unit s
par CombinedNetwork.server.ipv4.icmp typename "\"inet.networklayer.ipv4.Icmp\""
par CombinedNetwork.server.ipv4.icmp interfaceTableModule "\"CombinedNetwork.server.interfaceTable\""
par CombinedNetwork.server.ipv4.icmp routingTableModule "\"CombinedNetwork.server.ipv4.routingTable\""
par CombinedNetwork.server.ipv4.icmp crcMode "\"declared\""
attr enum declared,computed
attr mutable ""
par CombinedNetwork.server.ipv4.icmp quoteLength 8B
attr mutable ""
attr unit B
par CombinedNetwork.server.ipv4.mp typename "\"inet.common.MessageDispatcher\""
par CombinedNetwork.server.ipv4.mp displayStringTextFormat "\"processed %p pk (%l)\""
par CombinedNetwork.server.ipv4.mp forwardServiceRegistration true
par CombinedNetwork.server.ipv4.mp forwardProtocolRegistration true
par CombinedNetwork.server.ipv4.ip typename "\"inet.networklayer.ipv4.Ipv4\""
par CombinedNetwork.server.ipv4.ip interfaceTableModule "\"CombinedNetwork.server.interfaceTable\""
par CombinedNetwork.server.ipv4.ip routingTableModule "\"CombinedNetwork.server.ipv4.routingTable\""
par CombinedNetwork.server.ipv4.ip arpModule "\"CombinedNetwork.server.ipv4.arp\""
par CombinedNetwork.server.ipv4.ip icmpModule "\"CombinedNetwork.server.ipv4.icmp\""
par CombinedNetwork.server.ipv4.ip crcMode "\"declared\""
attr enum declared,computed
par CombinedNetwork.server.ipv4.ip timeToLive 32
par CombinedNetwork.server.ipv4.ip multicastTimeToLive 32
par CombinedNetwork.server.ipv4.ip fragmentTimeout 60s
attr unit s
par CombinedNetwork.server.ipv4.ip limitedBroadcast false
par CombinedNetwork.server.ipv4.ip directBroadcastInterfaces "\"\""
scalar CombinedNetwork.server.ipv4.ip packetDropAddressResolutionFailed:count 0
attr interpolationmode none
attr recordingmode count
attr source packetDropReasonIsAddressResolutionFailed(packetDropped)
attr title "packet drop: address resolution failed, count"
scalar CombinedNetwork.server.ipv4.ip packetDropAddressResolutionFailed:sum(packetBytes) 0
attr interpolationmode none
attr recordingmode sum(packetBytes)
attr source packetDropReasonIsAddressResolutionFailed(packetDropped)
attr title "packet drop: address resolution failed, sum(packetBytes)"
scalar CombinedNetwork.server.ipv4.ip packetDropHopLimitReached:count 0
attr interpolationmode none
attr recordingmode count
attr source packetDropReasonIsHopLimitReached(packetDropped)
attr title "packet drop: hop limit reached, count"
scalar CombinedNetwork.server.ipv4.ip packetDropHopLimitReached:sum(packetBytes) 0
attr interpolationmode none
attr recordingmode sum(packetBytes)
attr source packetDropReasonIsHopLimitReached(packetDropped)
attr title "packet drop: hop limit reached, sum(packetBytes)"
scalar CombinedNetwork.server.ipv4.ip packetDropForwardingDisabled:count 0
attr interpolationmode none
attr recordingmode count
attr source packetDropReasonIsForwardingDisabled(packetDropped)
attr title "packet drop: forwarding disabled, count"
scalar CombinedNetwork.server.ipv4.ip packetDropForwardingDisabled:sum(packetBytes) 0
attr interpolationmode none
attr recordingmode sum(packetBytes)
attr source packetDropReasonIsForwardingDisabled(packetDropped)
attr title "packet drop: forwarding disabled, sum(packetBytes)"
scalar CombinedNetwork.server.ipv4.ip packetDropNoInterfaceFound:count 0
attr interpolationmode none
attr recordingmode count
attr source packetDropReasonIsNoInterfaceFound(packetDropped)
attr title "packet drop: no interface found, count"
scalar CombinedNetwork.server.ipv4.ip packetDropNoInterfaceFound:sum(packetBytes) 0
attr interpolationmode none
attr recordingmode sum(packetBytes)
attr source packetDropReasonIsNoInterfaceFound(packetDropped)
attr title "packet drop: no interface found, sum(packetBytes)"
scalar CombinedNetwork.server.ipv4.ip packetDropNoRouteFound:count 0
attr interpolationmode none
attr recordingmode count
attr source packetDropReasonIsNoRouteFound(packetDropped)
attr title "packet drop: no route found, count"
scalar CombinedNetwork.server.ipv4.ip packetDropNoRouteFound:sum(packetBytes) 0
attr interpolationmode none
attr recordingmode sum(packetBytes)
attr source packetDropReasonIsNoRouteFound(packetDropped)
attr title "packet drop: no route found, sum(packetBytes)"
scalar CombinedNetwork.server.ipv4.ip packetDropUndefined:count 0
attr interpolationmode none
attr recordingmode count
attr source packetDropReasonIsUndefined(packetDropped)
attr title "packet drop: undefined, count"
scalar CombinedNetwork.server.ipv4.ip packetDropUndefined:sum(packetBytes) 0
attr interpolationmode none
attr recordingmode sum(packetBytes)
attr source packetDropReasonIsUndefined(packetDropped)
attr title "packet drop: undefined, sum(packetBytes)"
par CombinedNetwork.server.ipv4.arp typename "\"inet.networklayer.arp.ipv4.Arp\""
par CombinedNetwork.server.ipv4.arp interfaceTableModule "\"CombinedNetwork.server.interfaceTable\""
par CombinedNetwork.server.ipv4.arp routingTableModule "\"CombinedNetwork.server.ipv4.routingTable\""
par CombinedNetwork.server.ipv4.arp retryTimeout 1s
attr unit s
par CombinedNetwork.server.ipv4.arp retryCount 3
par CombinedNetwork.server.ipv4.arp cacheTimeout 120s
attr unit s
par CombinedNetwork.server.ipv4.arp proxyArpInterfaces "\"\""
scalar CombinedNetwork.server.ipv4.arp arpReplySent:count 0
attr recordingmode count
attr source arpReplySent
attr title "ARP replies sent, count"
scalar CombinedNetwork.server.ipv4.arp arpReplySent:sum(packetBytes) 0
attr recordingmode sum(packetBytes)
attr source arpReplySent
attr title "ARP replies sent, sum(packetBytes)"
scalar CombinedNetwork.server.ipv4.arp arpRequestSent:count 0
attr recordingmode count
attr source arpRequestSent
attr title "ARP request sent, count"
scalar CombinedNetwork.server.ipv4.arp arpRequestSent:sum(packetBytes) 0
attr recordingmode sum(packetBytes)
attr source arpRequestSent
attr title "ARP request sent, sum(packetBytes)"
scalar CombinedNetwork.server.ipv4.arp arpResolutionFailed:count 0
attr recordingmode count
attr title "ARP failed resolutions, count"
scalar CombinedNetwork.server.ipv4.arp arpResolutionCompleted:count 0
attr recordingmode count
attr title "ARP completed resolutions, count"
scalar CombinedNetwork.server.ipv4.arp arpResolutionInitiated:count 0
attr recordingmode count
attr title "ARP initiated resolutions, count"
par CombinedNetwork.server.ipv4.lp typename "\"inet.common.MessageDispatcher\""
par CombinedNetwork.server.ipv4.lp displayStringTextFormat "\"processed %p pk (%l)\""
par CombinedNetwork.server.ipv4.lp forwardServiceRegistration true
par CombinedNetwork.server.ipv4.lp forwardProtocolRegistration true
par CombinedNetwork.server.ipv4 typename "\"inet.networklayer.ipv4.Ipv4NetworkLayer\""
par CombinedNetwork.server.ipv4 forwarding false
par CombinedNetwork.server.ipv4 multicastForwarding false
par CombinedNetwork.server.ipv4 interfaceTableModule "\"CombinedNetwork.server.interfaceTable\""
par CombinedNetwork.server.ipv4 displayStringTextFormat "\"%i\""
par CombinedNetwork.server.nl typename "\"inet.common.MessageDispatcher\""
par CombinedNetwork.server.nl displayStringTextFormat "\"processed %p pk (%l)\""
par CombinedNetwork.server.nl forwardServiceRegistration true
par CombinedNetwork.server.nl forwardProtocolRegistration true
par CombinedNetwork.server.udp typename "\"inet.transportlayer.udp.Udp\""
par CombinedNetwork.server.udp interfaceTableModule "\"CombinedNetwork.server.interfaceTable\""
par CombinedNetwork.server.udp icmpModule "\"^.ipv4.icmp\""
par CombinedNetwork.server.udp icmpv6Module "\"^.ipv6.icmpv6\""
par CombinedNetwork.server.udp crcMode "\"declared\""
attr enum disabled,declared,computed
par CombinedNetwork.server.udp defaultMulticastLoop true
scalar CombinedNetwork.server.udp packetReceived:count 0
attr interpolationmode none
attr recordingmode count
attr source packetReceived
attr title "packets received, count"
scalar CombinedNetwork.server.udp packetReceived:sum(packetBytes) 0
attr interpolationmode none
attr recordingmode sum(packetBytes)
attr source packetReceived
attr title "packets received, sum(packetBytes)"
scalar CombinedNetwork.server.udp packetSent:count 0
attr interpolationmode none
attr recordingmode count
attr source packetSent
attr title "packets sent, count"
scalar CombinedNetwork.server.udp packetSent:sum(packetBytes) 0
attr interpolationmode none
attr recordingmode sum(packetBytes)
attr source packetSent
attr title "packets sent, sum(packetBytes)"
scalar CombinedNetwork.server.udp passedUpPk:count 0
attr interpolationmode none
attr recordingmode count
attr source packetSentToUpper
attr title "packets passed up, count"
scalar CombinedNetwork.server.udp droppedPkWrongPort:count 0
attr interpolationmode none
attr recordingmode count
attr source packetDropReasonIsNoPortFound(packetDropped)
attr title "packets dropped (wrong port), count"
scalar CombinedNetwork.server.udp droppedPkBadChecksum:count 0
attr interpolationmode none
attr recordingmode count
attr source packetDropReasonIsIncorrectlyReceived(packetDropped)
attr title "packets dropped (checksum error), count"
par CombinedNetwork.server.tcp typename "\"inet.transportlayer.tcp.Tcp\""
par CombinedNetwork.server.tcp crcMode "\"declared\""
attr enum declared,computed
par CombinedNetwork.server.tcp advertisedWindow 7504
par CombinedNetwork.server.tcp delayedAcksEnabled false
par CombinedNetwork.server.tcp nagleEnabled true
par CombinedNetwork.server.tcp limitedTransmitEnabled false
par CombinedNetwork.server.tcp increasedIWEnabled false
par CombinedNetwork.server.tcp sackSupport false
par CombinedNetwork.server.tcp windowScalingSupport false
par CombinedNetwork.server.tcp windowScalingFactor -1
par CombinedNetwork.server.tcp timestampSupport false
par CombinedNetwork.server.tcp mss 536
par CombinedNetwork.server.tcp msl 120s
attr unit s
par CombinedNetwork.server.tcp tcpAlgorithmClass "\"TcpReno\""
par CombinedNetwork.server.tcp useDataNotification false
par CombinedNetwork.server.tcp dupthresh 3
par CombinedNetwork.server.tcp initialSsthresh 4294967295
par CombinedNetwork.server.tcp stopOperationExtraTime 0s
attr unit s
par CombinedNetwork.server.tcp stopOperationTimeout 2s
attr unit s
par CombinedNetwork.server.tcp ecnWillingness false
par CombinedNetwork.server.tcp dctcpGamma 0.0625
par CombinedNetwork.server.tn typename "\"inet.common.MessageDispatcher\""
par CombinedNetwork.server.tn displayStringTextFormat "\"processed %p pk (%l)\""
par CombinedNetwork.server.tn forwardServiceRegistration true
par CombinedNetwork.server.tn forwardProtocolRegistration true
par CombinedNetwork.server.at typename "\"inet.common.MessageDispatcher\""
par CombinedNetwork.server.at displayStringTextFormat "\"processed %p pk (%l)\""
par CombinedNetwork.server.at forwardServiceRegistration true
par CombinedNetwork.server.at forwardProtocolRegistration true
par CombinedNetwork.server typename "\"inet.node.inet.StandardHost\""
par CombinedNetwork.server hasStatus false
par CombinedNetwork.server osgModel "\"\""
par CombinedNetwork.server osgModelColor "\"\""
par CombinedNetwork.server canvasImage "\"\""
par CombinedNetwork.server canvasImageColor "\"\""
par CombinedNetwork.server recordPcap false
par CombinedNetwork.server numPcapRecorders 0
par CombinedNetwork.server numLoInterfaces 1
par CombinedNetwork.server numWlanInterfaces 0
par CombinedNetwork.server numEthInterfaces 0
par CombinedNetwork.server numPppInterfaces 0
par CombinedNetwork.server numTunInterfaces 0
par CombinedNetwork.server numVirtInterfaces 0
par CombinedNetwork.server fcsMode "\"declared\""
attr enum declared,computed
par CombinedNetwork.server hasIpv4 true
par CombinedNetwork.server hasIpv6 false
par CombinedNetwork.server hasGn false
par CombinedNetwork.server forwarding false
par CombinedNetwork.server multicastForwarding false
par CombinedNetwork.server hasUdp true
par CombinedNetwork.server hasTcp true
par CombinedNetwork.server hasSctp false
par CombinedNetwork.server numApps 0
par CombinedNetwork.router.pppg$i[0].channel typename "\"ned.IdealChannel\""
par CombinedNetwork.router.ppp[0].phys$o.channel typename "\"ned.IdealChannel\""
par CombinedNetwork.router.pppg$i[1].channel typename "\"ned.IdealChannel\""
par CombinedNetwork.router.ppp[1].phys$o.channel typename "\"ned.IdealChannel\""
par CombinedNetwork.router.interfaceTable typename "\"inet.networklayer.common.InterfaceTable\""
par CombinedNetwork.router.interfaceTable displayAddresses false
par CombinedNetwork.router.cb typename "\"inet.common.MessageDispatcher\""
par CombinedNetwork.router.cb displayStringTextFormat "\"processed %p pk (%l)\""
par CombinedNetwork.router.cb forwardServiceRegistration true
par CombinedNetwork.router.cb forwardProtocolRegistration true
par CombinedNetwork.router.bl typename "\"inet.common.MessageDispatcher\""
par CombinedNetwork.router.bl displayStringTextFormat "\"processed %p pk (%l)\""
par CombinedNetwork.router.bl forwardServiceRegistration true
par CombinedNetwork.router.bl forwardProtocolRegistration true
par CombinedNetwork.router.li typename "\"inet.common.MessageDispatcher\""
par CombinedNetwork.router.li displayStringTextFormat "\"processed %p pk (%l)\""
par CombinedNetwork.router.li forwardServiceRegistration true
par CombinedNetwork.router.li forwardProtocolRegistration true
par CombinedNetwork.router.lo[0].upperLayerIn.channel typename "\"ned.IdealChannel\""
par CombinedNetwork.router.lo[0].lo.upperLayerOut.channel typename "\"ned.IdealChannel\""
par CombinedNetwork.router.lo[0].lo typename "\"inet.linklayer.loopback.Loopback\""
par CombinedNetwork.router.lo[0].lo interfaceTableModule "\"CombinedNetwork.router.interfaceTable\""
par CombinedNetwork.router.lo[0].lo mtu 4470B
attr unit B
scalar CombinedNetwork.router.lo[0].lo rcvdPkFromHl:count 0
attr interpolationmode none
attr recordingmode count
attr source packetReceivedFromUpper
attr title "packets received from higher layer, count"
scalar CombinedNetwork.router.lo[0].lo rcvdPkFromHl:sum(packetBytes) 0
attr interpolationmode none
attr recordingmode sum(packetBytes)
attr source packetReceivedFromUpper
attr title "packets received from higher layer, sum(packetBytes)"
scalar CombinedNetwork.router.lo[0].lo passedUpPk:count 0
attr interpolationmode none
attr recordingmode count
attr source packetSentToUpper
attr title "packets passed to higher layer, count"
scalar CombinedNetwork.router.lo[0].lo passedUpPk:sum(packetBytes) 0
attr interpolationmode none
attr recordingmode sum(packetBytes)
attr source packetSentToUpper
attr title "packets passed to higher layer, sum(packetBytes)"
par CombinedNetwork.router.lo[0] typename "\"inet.linklayer.loopback.LoopbackInterface\""
par CombinedNetwork.router.lo[0] displayStringTextFormat "\"%a (%i)\\n%m\""
par CombinedNetwork.router.lo[0] recordPcap false
par CombinedNetwork.router.lo[0] numPcapRecorders 0
par CombinedNetwork.router.lo[0] interfaceTableModule "\"CombinedNetwork.router.interfaceTable\""
scalar CombinedNetwork.router.lo[0] packetDropInterfaceDown:count 0
attr interpolationmode none
attr recordingmode count
attr source packetDropReasonIsInterfaceDown(packetDropped)
attr title "packet drops: interface down, count"
scalar CombinedNetwork.router.lo[0] packetDropInterfaceDown:sum(packetBytes) 0
attr interpolationmode none
attr recordingmode sum(packetBytes)
attr source packetDropReasonIsInterfaceDown(packetDropped)
attr title "packet drops: interface down, sum(packetBytes)"
scalar CombinedNetwork.router.lo[0] packetDropNoCarrier:count 0
attr interpolationmode none
attr recordingmode count
attr source packetDropReasonIsNoCarrier(packetDropped)
attr title "packet drops: no carrier, count"
scalar CombinedNetwork.router.lo[0] packetDropNoCarrier:sum(packetBytes) 0
attr interpolationmode none
attr recordingmode sum(packetBytes)
attr source packetDropReasonIsNoCarrier(packetDropped)
attr title "packet drops: no carrier, sum(packetBytes)"
par CombinedNetwork.router.ppp[0].phys$i.channel typename "\"ned.IdealChannel\""
par CombinedNetwork.router.ppp[0].ppp.phys$o.channel typename "\"ned.IdealChannel\""
par CombinedNetwork.router.ppp[0].ppp.upperLayerOut.channel typename "\"ned.IdealChannel\""
par CombinedNetwork.router.ppp[0].upperLayerIn.channel typename "\"ned.IdealChannel\""
par CombinedNetwork.router.ppp[0].ingressTC typename "\"inet.queueing.shaper.OmittedTrafficConditioner\""
par CombinedNetwork.router.ppp[0].egressTC typename "\"inet.queueing.shaper.OmittedTrafficConditioner\""
par CombinedNetwork.router.ppp[0].queue typename "\"inet.queueing.queue.DropTailQueue\""
par CombinedNetwork.router.ppp[0].queue displayStringTextFormat "\"contains %p pk (%l) pushed %u\\npulled %o removed %r dropped %d\""
par CombinedNetwork.router.ppp[0].queue packetCapacity 10000
par CombinedNetwork.router.ppp[0].queue dataCapacity -1b
attr unit b
par CombinedNetwork.router.ppp[0].queue dropperClass "\"inet::queueing::PacketAtCollectionEndDropper\""
par CombinedNetwork.router.ppp[0].queue comparatorClass "\"\""
par CombinedNetwork.router.ppp[0].queue bufferModule "\"\""
scalar CombinedNetwork.router.ppp[0].queue queueLength:last 0
attr autoWarmupFilter false
attr interpolationmode sample-hold
attr recordingmode last
attr source "warmup(atomic(constant0(packetPushEnded) + count(packetPushStarted) - count(packetPulled) - count(packetRemoved) - count(packetDropped)))"
attr title "queue length, last"
attr unit pk
scalar CombinedNetwork.router.ppp[0].queue queueLength:max 0
attr autoWarmupFilter false
attr interpolationmode sample-hold
attr recordingmode max
attr source "warmup(atomic(constant0(packetPushEnded) + count(packetPushStarted) - count(packetPulled) - count(packetRemoved) - count(packetDropped)))"
attr title "queue length, max"
attr unit pk
scalar CombinedNetwork.router.ppp[0].queue queueLength:timeavg nan
attr autoWarmupFilter false
attr interpolationmode sample-hold
attr recordingmode timeavg
attr source "warmup(atomic(constant0(packetPushEnded) + count(packetPushStarted) - count(packetPulled) - count(packetRemoved) - count(packetDropped)))"
attr title "queue length, timeavg"
attr unit pk
scalar CombinedNetwork.router.ppp[0].queue queueBitLength:last 0
attr autoWarmupFilter false
attr interpolationmode sample-hold
attr recordingmode last
attr source "warmup(atomic(constant0(packetPushEnded) + sum(packetLength(packetPushStarted)) - sum(packetLength(packetPulled)) - sum(packetLength(packetRemoved)) - sum(packetLength(packetDropped))))"
attr title "queue bit length, last"
attr unit b
scalar CombinedNetwork.router.ppp[0].queue queueBitLength:max 0
attr autoWarmupFilter false
attr interpolationmode sample-hold
attr recordingmode max
attr source "warmup(atomic(constant0(packetPushEnded) + sum(packetLength(packetPushStarted)) - sum(packetLength(packetPulled)) - sum(packetLength(packetRemoved)) - sum(packetLength(packetDropped))))"
attr title "queue bit length, max"
attr unit b
scalar CombinedNetwork.router.ppp[0].queue queueBitLength:timeavg nan
attr autoWarmupFilter false
attr interpolationmode sample-hold
attr recordingmode timeavg
attr source "warmup(atomic(constant0(packetPushEnded) + sum(packetLength(packetPushStarted)) - sum(packetLength(packetPulled)) - sum(packetLength(packetRemoved)) - sum(packetLength(packetDropped))))"
attr title "queue bit length, timeavg"
attr unit b
statistic CombinedNetwork.router.ppp[0].queue queueingTime:histogram
field count 0
field mean nan
field stddev nan
field min nan
field max nan
field sum 0
field sqrsum 0
attr interpolationmode none
attr recordingmode histogram
attr source queueingTime(packetPulled)
attr title "queueing times"
attr unit s
bin	-inf	0
bin	0	0
bin	1	0
scalar CombinedNetwork.router.ppp[0].queue outgoingPackets:count 0
attr recordingmode count
attr source packetPulled
attr title "outgoing packets, count"
attr unit pk
scalar CombinedNetwork.router.ppp[0].queue outgoingPacketLengths:sum 0
attr interpolationmode none
attr recordingmode sum
attr source packetLength(packetPulled)
attr title "outgoing packet lengths, sum"
attr unit b
statistic CombinedNetwork.router.ppp[0].queue outgoingPacketLengths:histogram
field count 0
field mean nan
field stddev nan
field min nan
field max nan
field sum 0
field sqrsum 0
attr interpolationmode none
attr recordingmode histogram
attr source packetLength(packetPulled)
attr title "outgoing packet lengths"
attr unit b
bin	-inf	0
bin	0	0
bin	1	0
statistic CombinedNetwork.router.ppp[0].queue flowQueueingTime:histogram
field count 0
field mean nan
field stddev nan
field min nan
field max nan
field sum 0
field sqrsum 0
attr interpolationmode none
attr recordingmode histogram
attr source queueingTime(demuxFlow(packetPulled))
attr title "flow queueing times"
attr unit s
bin	-inf	0
bin	0	0
bin	1	0
scalar CombinedNetwork.router.ppp[0].queue incomingPackets:count 0
attr recordingmode count
attr source packetPushStarted
attr title "incoming packets, count"
attr unit pk
scalar CombinedNetwork.router.ppp[0].queue incomingPacketLengths:sum 0
attr interpolationmode none
attr recordingmode sum
attr source packetLength(packetPushStarted)
attr title "incoming packet lengths, sum"
attr unit b
statistic CombinedNetwork.router.ppp[0].queue incomingPacketLengths:histogram
field count 0
field mean nan
field stddev nan
field min nan
field max nan
field sum 0
field sqrsum 0
attr interpolationmode none
attr recordingmode histogram
attr source packetLength(packetPushStarted)
attr title "incoming packet lengths"
attr unit b
bin	-inf	0
bin	0	0
bin	1	0
scalar CombinedNetwork.router.ppp[0].queue droppedPacketsQueueOverflow:count 0
attr interpolationmode none
attr recordingmode count
attr source packetDropReasonIsQueueOverflow(packetDropped)
attr title "dropped packets: queue overflow, count"
attr unit pk
scalar CombinedNetwork.router.ppp[0].queue droppedPacketLengthsQueueOverflow:sum 0
attr interpolationmode none
attr recordingmode sum
attr source packetLength(packetDropReasonIsQueueOverflow(packetDropped))
attr title "dropped packet lengths: queue overflow, sum"
attr unit b
par CombinedNetwork.router.ppp[0].ppp typename "\"inet.linklayer.ppp.Ppp\""
par CombinedNetwork.router.ppp[0].ppp interfaceTableModule "\"CombinedNetwork.router.interfaceTable\""
par CombinedNetwork.router.ppp[0].ppp displayStringTextFormat "\"rate: %b\\nsent: %s, rcvd: %r\\nqueue: %q, drop: %d\""
par CombinedNetwork.router.ppp[0].ppp sendRawBytes false
par CombinedNetwork.router.ppp[0].ppp mtu 4470B
attr unit B
par CombinedNetwork.router.ppp[0].ppp stopOperationExtraTime -1s
attr unit s
par CombinedNetwork.router.ppp[0].ppp stopOperationTimeout 2s
attr unit s
scalar CombinedNetwork.router.ppp[0].ppp txPk:count 0
attr interpolationmode none
attr recordingmode count
attr source packetSentToLower
attr title "packets transmitted, count"
scalar CombinedNetwork.router.ppp[0].ppp txPk:sum(packetBytes) 0
attr interpolationmode none
attr recordingmode sum(packetBytes)
attr source packetSentToLower
attr title "packets transmitted, sum(packetBytes)"
scalar CombinedNetwork.router.ppp[0].ppp rcvdPkFromHl:count 0
attr interpolationmode none
attr recordingmode count
attr source packetReceivedFromUpper
attr title "packets received from higher layer, count"
scalar CombinedNetwork.router.ppp[0].ppp rcvdPkFromHl:sum(packetBytes) 0
attr interpolationmode none
attr recordingmode sum(packetBytes)
attr source packetReceivedFromUpper
attr title "packets received from higher layer, sum(packetBytes)"
scalar CombinedNetwork.router.ppp[0].ppp passedUpPk:count 0
attr interpolationmode none
attr recordingmode count
attr source packetSentToUpper
attr title "packets passed to higher layer, count"
scalar CombinedNetwork.router.ppp[0].ppp passedUpPk:sum(packetBytes) 0
attr interpolationmode none
attr recordingmode sum(packetBytes)
attr source packetSentToUpper
attr title "packets passed to higher layer, sum(packetBytes)"
scalar CombinedNetwork.router.ppp[0].ppp packetDropIncorrectlyReceived:count 0
attr interpolationmode none
attr recordingmode count
attr source packetDropReasonIsIncorrectlyReceived(packetDropped)
attr title "packet drop: incorrectly received, count"
scalar CombinedNetwork.router.ppp[0].ppp packetDropIncorrectlyReceived:sum(packetBytes) 0
attr interpolationmode none
attr recordingmode sum(packetBytes)
attr source packetDropReasonIsIncorrectlyReceived(packetDropped)
attr title "packet drop: incorrectly received, sum(packetBytes)"
scalar CombinedNetwork.router.ppp[0].ppp packetDropInterfaceDown:count 0
attr interpolationmode none
attr recordingmode count
attr source packetDropReasonIsInterfaceDown(packetDropped)
attr title "packet drop: interface down, count"
scalar CombinedNetwork.router.ppp[0].ppp packetDropInterfaceDown:sum(packetBytes) 0
attr interpolationmode none
attr recordingmode sum(packetBytes)
attr source packetDropReasonIsInterfaceDown(packetDropped)
attr title "packet drop: interface down, sum(packetBytes)"
scalar CombinedNetwork.router.ppp[0].ppp rxPkOk:count 0
attr interpolationmode none
attr recordingmode count
attr source rxPkOk
attr title "packets received OK, count"
scalar CombinedNetwork.router.ppp[0].ppp rxPkOk:sum(packetBytes) 0
attr interpolationmode none
attr recordingmode sum(packetBytes)
attr source rxPkOk
attr title "packets received OK, sum(packetBytes)"
scalar CombinedNetwork.router.ppp[0].ppp transmissionState:timeavg nan
attr interpolationmode sample-hold
attr recordingmode timeavg
attr source transmissionStateChanged
attr title "tx state, timeavg"
par CombinedNetwork.router.ppp[0] typename "\"inet.linklayer.ppp.PppInterface\""
par CombinedNetwork.router.ppp[0] displayStringTextFormat "\"%a (%i)\\n%m\""
par CombinedNetwork.router.ppp[0] recordPcap false
par CombinedNetwork.router.ppp[0] numPcapRecorders 0
par CombinedNetwork.router.ppp[0] interfaceTableModule "\"CombinedNetwork.router.interfaceTable\""
scalar CombinedNetwork.router.ppp[0] packetDropInterfaceDown:count 0
attr interpolationmode none
attr recordingmode count
attr source packetDropReasonIsInterfaceDown(packetDropped)
attr title "packet drops: interface down, count"
scalar CombinedNetwork.router.ppp[0] packetDropInterfaceDown:sum(packetBytes) 0
attr interpolationmode none
attr recordingmode sum(packetBytes)
attr source packetDropReasonIsInterfaceDown(packetDropped)
attr title "packet drops: interface down, sum(packetBytes)"
scalar CombinedNetwork.router.ppp[0] packetDropNoCarrier:count 0
attr interpolationmode none
attr recordingmode count
attr source packetDropReasonIsNoCarrier(packetDropped)
attr title "packet drops: no carrier, count"
scalar CombinedNetwork.router.ppp[0] packetDropNoCarrier:sum(packetBytes) 0
attr interpolationmode none
attr recordingmode sum(packetBytes)
attr source packetDropReasonIsNoCarrier(packetDropped)
attr title "packet drops: no carrier, sum(packetBytes)"
par CombinedNetwork.router.ppp[1].phys$i.channel typename "\"ned.IdealChannel\""
par CombinedNetwork.router.ppp[1].ppp.phys$o.channel typename "\"ned.IdealChannel\""
par CombinedNetwork.router.ppp[1].ppp.upperLayerOut.channel typename "\"ned.IdealChannel\""
par CombinedNetwork.router.ppp[1].upperLayerIn.channel typename "\"ned.IdealChannel\""
par CombinedNetwork.router.ppp[1].ingressTC typename "\"inet.queueing.shaper.OmittedTrafficConditioner\""
par CombinedNetwork.router.ppp[1].egressTC typename "\"inet.queueing.shaper.OmittedTrafficConditioner\""
par CombinedNetwork.router.ppp[1].queue typename "\"inet.queueing.queue.DropTailQueue\""
par CombinedNetwork.router.ppp[1].queue displayStringTextFormat "\"contains %p pk (%l) pushed %u\\npulled %o removed %r dropped %d\""
par CombinedNetwork.router.ppp[1].queue packetCapacity 10000
par CombinedNetwork.router.ppp[1].queue dataCapacity -1b
attr unit b
par CombinedNetwork.router.ppp[1].queue dropperClass "\"inet::queueing::PacketAtCollectionEndDropper\""
par CombinedNetwork.router.ppp[1].queue comparatorClass "\"\""
par CombinedNetwork.router.ppp[1].queue bufferModule "\"\""
scalar CombinedNetwork.router.ppp[1].queue queueLength:last 0
attr autoWarmupFilter false
attr interpolationmode sample-hold
attr recordingmode last
attr source "warmup(atomic(constant0(packetPushEnded) + count(packetPushStarted) - count(packetPulled) - count(packetRemoved) - count(packetDropped)))"
attr title "queue length, last"
attr unit pk
scalar CombinedNetwork.router.ppp[1].queue queueLength:max 0
attr autoWarmupFilter false
attr interpolationmode sample-hold
attr recordingmode max
attr source "warmup(atomic(constant0(packetPushEnded) + count(packetPushStarted) - count(packetPulled) - count(packetRemoved) - count(packetDropped)))"
attr title "queue length, max"
attr unit pk
scalar CombinedNetwork.router.ppp[1].queue queueLength:timeavg nan
attr autoWarmupFilter false
attr interpolationmode sample-hold
attr recordingmode timeavg
attr source "warmup(atomic(constant0(packetPushEnded) + count(packetPushStarted) - count(packetPulled) - count(packetRemoved) - count(packetDropped)))"
attr title "queue length, timeavg"
attr unit pk
scalar CombinedNetwork.router.ppp[1].queue queueBitLength:last 0
attr autoWarmupFilter false
attr interpolationmode sample-hold
attr recordingmode last
attr source "warmup(atomic(constant0(packetPushEnded) + sum(packetLength(packetPushStarted)) - sum(packetLength(packetPulled)) - sum(packetLength(packetRemoved)) - sum(packetLength(packetDropped))))"
attr title "queue bit length, last"
attr unit b
scalar CombinedNetwork.router.ppp[1].queue queueBitLength:max 0
attr autoWarmupFilter false
attr interpolationmode sample-hold
attr recordingmode max
attr source "warmup(atomic(constant0(packetPushEnded) + sum(packetLength(packetPushStarted)) - sum(packetLength(packetPulled)) - sum(packetLength(packetRemoved)) - sum(packetLength(packetDropped))))"
attr title "queue bit length, max"
attr unit b
scalar CombinedNetwork.router.ppp[1].queue queueBitLength:timeavg nan
attr autoWarmupFilter false
attr interpolationmode sample-hold
attr recordingmode timeavg
attr source "warmup(atomic(constant0(packetPushEnded) + sum(packetLength(packetPushStarted)) - sum(packetLength(packetPulled)) - sum(packetLength(packetRemoved)) - sum(packetLength(packetDropped))))"
attr title "queue bit length, timeavg"
attr unit b
statistic CombinedNetwork.router.ppp[1].queue queueingTime:histogram
field count 0
field mean nan
field stddev nan
field min nan
field max nan
field sum 0
field sqrsum 0
attr interpolationmode none
attr recordingmode histogram
attr source queueingTime(packetPulled)
attr title "queueing times"
attr unit s
bin	-inf	0
bin	0	0
bin	1	0
scalar CombinedNetwork.router.ppp[1].queue outgoingPackets:count 0
attr recordingmode count
attr source packetPulled
attr title "outgoing packets, count"
attr unit pk
scalar CombinedNetwork.router.ppp[1].queue outgoingPacketLengths:sum 0
attr interpolationmode none
attr recordingmode sum
attr source packetLength(packetPulled)
attr title "outgoing packet lengths, sum"
attr unit b
statistic CombinedNetwork.router.ppp[1].queue outgoingPacketLengths:histogram
field count 0
field mean nan
field stddev nan
field min nan
field max nan
field sum 0
field sqrsum 0
attr interpolationmode none
attr recordingmode histogram
attr source packetLength(packetPulled)
attr title "outgoing packet lengths"
attr unit b
bin	-inf	0
bin	0	0
bin	1	0
statistic CombinedNetwork.router.ppp[1].queue flowQueueingTime:histogram
field count 0
field mean nan
field stddev nan
field min nan
field max nan
field sum 0
field sqrsum 0
attr interpolationmode none
attr recordingmode histogram
attr source queueingTime(demuxFlow(packetPulled))
attr title "flow queueing times"
attr unit s
bin	-inf	0
bin	0	0
bin	1	0
scalar CombinedNetwork.router.ppp[1].queue incomingPackets:count 0
attr recordingmode count
attr source packetPushStarted
attr title "incoming packets, count"
attr unit pk
scalar CombinedNetwork.router.ppp[1].queue incomingPacketLengths:sum 0
attr interpolationmode none
attr recordingmode sum
attr source packetLength(packetPushStarted)
attr title "incoming packet lengths, sum"
attr unit b
statistic CombinedNetwork.router.ppp[1].queue incomingPacketLengths:histogram
field count 0
field mean nan
field stddev nan
field min nan
field max nan
field sum 0
field sqrsum 0
attr interpolationmode none
attr recordingmode histogram
attr source packetLength(packetPushStarted)
attr title "incoming packet lengths"
attr unit b
bin	-inf	0
bin	0	0
bin	1	0
scalar CombinedNetwork.router.ppp[1].queue droppedPacketsQueueOverflow:count 0
attr interpolationmode none
attr recordingmode count
attr source packetDropReasonIsQueueOverflow(packetDropped)
attr title "dropped packets: queue overflow, count"
attr unit pk
scalar CombinedNetwork.router.ppp[1].queue droppedPacketLengthsQueueOverflow:sum 0
attr interpolationmode none
attr recordingmode sum
attr source packetLength(packetDropReasonIsQueueOverflow(packetDropped))
attr title "dropped packet lengths: queue overflow, sum"
attr unit b
par CombinedNetwork.router.ppp[1].ppp typename "\"inet.linklayer.ppp.Ppp\""
par CombinedNetwork.router.ppp[1].ppp interfaceTableModule "\"CombinedNetwork.router.interfaceTable\""
par CombinedNetwork.router.ppp[1].ppp displayStringTextFormat "\"rate: %b\\nsent: %s, rcvd: %r\\nqueue: %q, drop: %d\""
par CombinedNetwork.router.ppp[1].ppp sendRawBytes false
par CombinedNetwork.router.ppp[1].ppp mtu 4470B
attr unit B
par CombinedNetwork.router.ppp[1].ppp stopOperationExtraTime -1s
attr unit s
par CombinedNetwork.router.ppp[1].ppp stopOperationTimeout 2s
attr unit s
scalar CombinedNetwork.router.ppp[1].ppp txPk:count 0
attr interpolationmode none
attr recordingmode count
attr source packetSentToLower
attr title "packets transmitted, count"
scalar CombinedNetwork.router.ppp[1].ppp txPk:sum(packetBytes) 0
attr interpolationmode none
attr recordingmode sum(packetBytes)
attr source packetSentToLower
attr title "packets transmitted, sum(packetBytes)"
scalar CombinedNetwork.router.ppp[1].ppp rcvdPkFromHl:count 0
attr interpolationmode none
attr recordingmode count
attr source packetReceivedFromUpper
attr title "packets received from higher layer, count"
scalar CombinedNetwork.router.ppp[1].ppp rcvdPkFromHl:sum(packetBytes) 0
attr interpolationmode none
attr recordingmode sum(packetBytes)
attr source packetReceivedFromUpper
attr title "packets received from higher layer, sum(packetBytes)"
scalar CombinedNetwork.router.ppp[1].ppp passedUpPk:count 0
attr interpolationmode none
attr recordingmode count
attr source packetSentToUpper
attr title "packets passed to higher layer, count"
scalar CombinedNetwork.router.ppp[1].ppp passedUpPk:sum(packetBytes) 0
attr interpolationmode none
attr recordingmode sum(packetBytes)
attr source packetSentToUpper
attr title "packets passed to higher layer, sum(packetBytes)"
scalar CombinedNetwork.router.ppp[1].ppp packetDropIncorrectlyReceived:count 0
attr interpolationmode none
attr recordingmode count
attr source packetDropReasonIsIncorrectlyReceived(packetDropped)
attr title "packet drop: incorrectly received, count"
scalar CombinedNetwork.router.ppp[1].ppp packetDropIncorrectlyReceived:sum(packetBytes) 0
attr interpolationmode none
attr recordingmode sum(packetBytes)
attr source packetDropReasonIsIncorrectlyReceived(packetDropped)
attr title "packet drop: incorrectly received, sum(packetBytes)"
scalar CombinedNetwork.router.ppp[1].ppp packetDropInterfaceDown:count 0
attr interpolationmode none
attr recordingmode count
attr source packetDropReasonIsInterfaceDown(packetDropped)
attr title "packet drop: interface down, count"
scalar CombinedNetwork.router.ppp[1].ppp packetDropInterfaceDown:sum(packetBytes) 0
attr interpolationmode none
attr recordingmode sum(packetBytes)
attr source packetDropReasonIsInterfaceDown(packetDropped)
attr title "packet drop: interface down, sum(packetBytes)"
scalar CombinedNetwork.router.ppp[1].ppp rxPkOk:count 0
attr interpolationmode none
attr recordingmode count
attr source rxPkOk
attr title "packets received OK, count"
scalar CombinedNetwork.router.ppp[1].ppp rxPkOk:sum(packetBytes) 0
attr interpolationmode none
attr recordingmode sum(packetBytes)
attr source rxPkOk
attr title "packets received OK, sum(packetBytes)"
scalar CombinedNetwork.router.ppp[1].ppp transmissionState:timeavg nan
attr interpolationmode sample-hold
attr recordingmode timeavg
attr source transmissionStateChanged
attr title "tx state, timeavg"
par CombinedNetwork.router.ppp[1] typename "\"inet.linklayer.ppp.PppInterface\""
par CombinedNetwork.router.ppp[1] displayStringTextFormat "\"%a (%i)\\n%m\""
par CombinedNetwork.router.ppp[1] recordPcap false
par CombinedNetwork.router.ppp[1] numPcapRecorders 0
par CombinedNetwork.router.ppp[1] interfaceTableModule "\"CombinedNetwork.router.interfaceTable\""
scalar CombinedNetwork.router.ppp[1] packetDropInterfaceDown:count 0
attr interpolationmode none
attr recordingmode count
attr source packetDropReasonIsInterfaceDown(packetDropped)
attr title "packet drops: interface down, count"
scalar CombinedNetwork.router.ppp[1] packetDropInterfaceDown:sum(packetBytes) 0
attr interpolationmode none
attr recordingmode sum(packetBytes)
attr source packetDropReasonIsInterfaceDown(packetDropped)
attr title "packet drops: interface down, sum(packetBytes)"
scalar CombinedNetwork.router.ppp[1] packetDropNoCarrier:count 0
attr interpolationmode none
attr recordingmode count
attr source packetDropReasonIsNoCarrier(packetDropped)
attr title "packet drops: no carrier, count"
scalar CombinedNetwork.router.ppp[1] packetDropNoCarrier:sum(packetBytes) 0
attr interpolationmode none
attr recordingmode sum(packetBytes)
attr source packetDropReasonIsNoCarrier(packetDropped)
attr title "packet drops: no carrier, sum(packetBytes)"
par CombinedNetwork.router.ipv4.transportIn.channel typename "\"ned.IdealChannel\""
par CombinedNetwork.router.ipv4.up.out[0].channel typename "\"ned.IdealChannel\""
par CombinedNetwork.router.ipv4.lp.out[2].channel typename "\"ned.IdealChannel\""
par CombinedNetwork.router.ipv4.ifIn.channel typename "\"ned.IdealChannel\""
par CombinedNetwork.router.ipv4.configurator typename "\"inet.networklayer.configurator.ipv4.Ipv4NodeConfigurator\""
par CombinedNetwork.router.ipv4.configurator interfaceTableModule "\"CombinedNetwork.router.interfaceTable\""
par CombinedNetwork.router.ipv4.configurator routingTableModule "\"CombinedNetwork.router.ipv4.routingTable\""
par CombinedNetwork.router.ipv4.configurator networkConfiguratorModule "\"configurator\""
par CombinedNetwork.router.ipv4.configurator configureRoutingTable true
par CombinedNetwork.router.ipv4.routingTable typename "\"inet.networklayer.ipv4.Ipv4RoutingTable\""
par CombinedNetwork.router.ipv4.routingTable interfaceTableModule "\"CombinedNetwork.router.interfaceTable\""
par CombinedNetwork.router.ipv4.routingTable routerId "\"auto\""
par CombinedNetwork.router.ipv4.routingTable netmaskRoutes "\"*\""
par CombinedNetwork.router.ipv4.routingTable forwarding true
par CombinedNetwork.router.ipv4.routingTable multicastForwarding false
par CombinedNetwork.router.ipv4.routingTable useAdminDist false
par CombinedNetwork.router.ipv4.routingTable routingFile "\"\""
par CombinedNetwork.router.ipv4.natTable typename "\"inet.networklayer.ipv4.Ipv4NatTable\""
par CombinedNetwork.router.ipv4.natTable networkProtocolModule "\"^.ip\""
par CombinedNetwork.router.ipv4.natTable config "<config/> at content:1"
par CombinedNetwork.router.ipv4.up typename "\"inet.common.MessageDispatcher\""
par CombinedNetwork.router.ipv4.up displayStringTextFormat "\"processed %p pk (%l)\""
par CombinedNetwork.router.ipv4.up forwardServiceRegistration true
par CombinedNetwork.router.ipv4.up forwardProtocolRegistration true
par CombinedNetwork.router.ipv4.igmp typename "\"inet.networklayer.ipv4.Igmpv2\""
par CombinedNetwork.router.ipv4.igmp interfaceTableModule "\"CombinedNetwork.router.interfaceTable\""
par CombinedNetwork.router.ipv4.igmp routingTableModule "\"CombinedNetwork.router.ipv4.routingTable\""
par CombinedNetwork.router.ipv4.igmp crcMode "\"declared\""
attr enum declared,computed
par CombinedNetwork.router.ipv4.igmp enabled true
par CombinedNetwork.router.ipv4.igmp robustnessVariable 2
par CombinedNetwork.router.ipv4.igmp queryInterval 125s
attr unit s
par CombinedNetwork.router.ipv4.igmp queryResponseInterval 10s
attr unit s
par CombinedNetwork.router.ipv4.igmp groupMembershipInterval 260s
attr unit s
par CombinedNetwork.router.ipv4.igmp otherQuerierPresentInterval 255s
attr unit s
par CombinedNetwork.router.ipv4.igmp startupQueryInterval 31.25s
attr unit s
par CombinedNetwork.router.ipv4.igmp startupQueryCount 2
par CombinedNetwork.router.ipv4.igmp lastMemberQueryInterval 1s
attr unit s
par CombinedNetwork.router.ipv4.igmp lastMemberQueryCount 2
par CombinedNetwork.router.ipv4.igmp unsolicitedReportInterval 10s
attr unit s
par CombinedNetwork.router.ipv4.icmp typename "\"inet.networklayer.ipv4.Icmp\""
par CombinedNetwork.router.ipv4.icmp interfaceTableModule "\"CombinedNetwork.router.interfaceTable\""
par CombinedNetwork.router.ipv4.icmp routingTableModule "\"CombinedNetwork.router.ipv4.routingTable\""
par CombinedNetwork.router.ipv4.icmp crcMode "\"declared\""
attr enum declared,computed
attr mutable ""
par CombinedNetwork.router.ipv4.icmp quoteLength 8B
attr mutable ""
attr unit B
par CombinedNetwork.router.ipv4.mp typename "\"inet.common.MessageDispatcher\""
par CombinedNetwork.router.ipv4.mp displayStringTextFormat "\"processed %p pk (%l)\""
par CombinedNetwork.router.ipv4.mp forwardServiceRegistration true
par CombinedNetwork.router.ipv4.mp forwardProtocolRegistration true
par CombinedNetwork.router.ipv4.ip typename "\"inet.networklayer.ipv4.Ipv4\""
par CombinedNetwork.router.ipv4.ip interfaceTableModule "\"CombinedNetwork.router.interfaceTable\""
par CombinedNetwork.router.ipv4.ip routingTableModule "\"CombinedNetwork.router.ipv4.routingTable\""
par CombinedNetwork.router.ipv4.ip arpModule "\"CombinedNetwork.router.ipv4.arp\""
par CombinedNetwork.router.ipv4.ip icmpModule "\"CombinedNetwork.router.ipv4.icmp\""
par CombinedNetwork.router.ipv4.ip crcMode "\"declared\""
attr enum declared,computed
par CombinedNetwork.router.ipv4.ip timeToLive 32
par CombinedNetwork.router.ipv4.ip multicastTimeToLive 32
par CombinedNetwork.router.ipv4.ip fragmentTimeout 60s
attr unit s
par CombinedNetwork.router.ipv4.ip limitedBroadcast false
par CombinedNetwork.router.ipv4.ip directBroadcastInterfaces "\"\""
scalar CombinedNetwork.router.ipv4.ip packetDropAddressResolutionFailed:count 0
attr interpolationmode none
attr recordingmode count
attr source packetDropReasonIsAddressResolutionFailed(packetDropped)
attr title "packet drop: address resolution failed, count"
scalar CombinedNetwork.router.ipv4.ip packetDropAddressResolutionFailed:sum(packetBytes) 0
attr interpolationmode none
attr recordingmode sum(packetBytes)
attr source packetDropReasonIsAddressResolutionFailed(packetDropped)
attr title "packet drop: address resolution failed, sum(packetBytes)"
scalar CombinedNetwork.router.ipv4.ip packetDropHopLimitReached:count 0
attr interpolationmode none
attr recordingmode count
attr source packetDropReasonIsHopLimitReached(packetDropped)
attr title "packet drop: hop limit reached, count"
scalar CombinedNetwork.router.ipv4.ip packetDropHopLimitReached:sum(packetBytes) 0
attr interpolationmode none
attr recordingmode sum(packetBytes)
attr source packetDropReasonIsHopLimitReached(packetDropped)
attr title "packet drop: hop limit reached, sum(packetBytes)"
scalar CombinedNetwork.router.ipv4.ip packetDropForwardingDisabled:count 0
attr interpolationmode none
attr recordingmode count
attr source packetDropReasonIsForwardingDisabled(packetDropped)
attr title "packet drop: forwarding disabled, count"
scalar CombinedNetwork.router.ipv4.ip packetDropForwardingDisabled:sum(packetBytes) 0
attr interpolationmode none
attr recordingmode sum(packetBytes)
attr source packetDropReasonIsForwardingDisabled(packetDropped)
attr title "packet drop: forwarding disabled, sum(packetBytes)"
scalar CombinedNetwork.router.ipv4.ip packetDropNoInterfaceFound:count 0
attr interpolationmode none
attr recordingmode count
attr source packetDropReasonIsNoInterfaceFound(packetDropped)
attr title "packet drop: no interface found, count"
scalar CombinedNetwork.router.ipv4.ip packetDropNoInterfaceFound:sum(packetBytes) 0
attr interpolationmode none
attr recordingmode sum(packetBytes)
attr source packetDropReasonIsNoInterfaceFound(packetDropped)
attr title "packet drop: no interface found, sum(packetBytes)"
scalar CombinedNetwork.router.ipv4.ip packetDropNoRouteFound:count 0
attr interpolationmode none
attr recordingmode count
attr source packetDropReasonIsNoRouteFound(packetDropped)
attr title "packet drop: no route found, count"
scalar CombinedNetwork.router.ipv4.ip packetDropNoRouteFound:sum(packetBytes) 0
attr interpolationmode none
attr recordingmode sum(packetBytes)
attr source packetDropReasonIsNoRouteFound(packetDropped)
attr title "packet drop: no route found, sum(packetBytes)"
[...]
par CombinedNetwork.ue[0].ipv4.routingTable netmaskRoutes "\"*\""
par CombinedNetwork.ue[0].ipv4.routingTable forwarding false
par CombinedNetwork.ue[0].ipv4.routingTable multicastForwarding false
par CombinedNetwork.ue[0].ipv4.routingTable useAdminDist false
par CombinedNetwork.ue[0].ipv4.routingTable routingFile "\"\""
par CombinedNetwork.ue[0].ipv4.natTable typename "\"inet.networklayer.ipv4.Ipv4NatTable\""
par CombinedNetwork.ue[0].ipv4.natTable networkProtocolModule "\"^.ip\""
par CombinedNetwork.ue[0].ipv4.natTable config "<config/> at content:1"
par CombinedNetwork.ue[0].ipv4.up typename "\"inet.common.MessageDispatcher\""
par CombinedNetwork.ue[0].ipv4.up displayStringTextFormat "\"processed %p pk (%l)\""
par CombinedNetwork.ue[0].ipv4.up forwardServiceRegistration true
par CombinedNetwork.ue[0].ipv4.up forwardProtocolRegistration true
par CombinedNetwork.ue[0].ipv4.igmp typename "\"inet.networklayer.ipv4.Igmpv2\""
par CombinedNetwork.ue[0].ipv4.igmp interfaceTableModule "\"CombinedNetwork.ue[0].interfaceTable\""
par CombinedNetwork.ue[0].ipv4.igmp routingTableModule "\"CombinedNetwork.ue[0].ipv4.routingTable\""
par CombinedNetwork.ue[0].ipv4.igmp crcMode "\"declared\""
attr enum declared,computed
par CombinedNetwork.ue[0].ipv4.igmp enabled true
par CombinedNetwork.ue[0].ipv4.igmp robustnessVariable 2
par CombinedNetwork.ue[0].ipv4.igmp queryInterval 125s
attr unit s
par CombinedNetwork.ue[0].ipv4.igmp queryResponseInterval 10s
attr unit s
par CombinedNetwork.ue[0].ipv4.igmp groupMembershipInterval 260s
attr unit s
par CombinedNetwork.ue[0].ipv4.igmp otherQuerierPresentInterval 255s
attr unit s
par CombinedNetwork.ue[0].ipv4.igmp startupQueryInterval 31.25s
attr unit s
par CombinedNetwork.ue[0].ipv4.igmp startupQueryCount 2
par CombinedNetwork.ue[0].ipv4.igmp lastMemberQueryInterval 1s
attr unit s
par CombinedNetwork.ue[0].ipv4.igmp lastMemberQueryCount 2
par CombinedNetwork.ue[0].ipv4.igmp unsolicitedReportInterval 10s
attr unit s
par CombinedNetwork.ue[0].ipv4.icmp typename "\"inet.networklayer.ipv4.Icmp\""
par CombinedNetwork.ue[0].ipv4.icmp interfaceTableModule "\"CombinedNetwork.ue[0].interfaceTable\""
par CombinedNetwork.ue[0].ipv4.icmp routingTableModule "\"CombinedNetwork.ue[0].ipv4.routingTable\""
par CombinedNetwork.ue[0].ipv4.icmp crcMode "\"declared\""
attr enum declared,computed
attr mutable ""
par CombinedNetwork.ue[0].ipv4.icmp quoteLength 8B
attr mutable ""
attr unit B
par CombinedNetwork.ue[0].ipv4.mp typename "\"inet.common.MessageDispatcher\""
par CombinedNetwork.ue[0].ipv4.mp displayStringTextFormat "\"processed %p pk (%l)\""
par CombinedNetwork.ue[0].ipv4.mp forwardServiceRegistration true
par CombinedNetwork.ue[0].ipv4.mp forwardProtocolRegistration true
par CombinedNetwork.ue[0].ipv4.ip typename "\"inet.networklayer.ipv4.Ipv4\""
par CombinedNetwork.ue[0].ipv4.ip interfaceTableModule "\"CombinedNetwork.ue[0].interfaceTable\""
par CombinedNetwork.ue[0].ipv4.ip routingTableModule "\"CombinedNetwork.ue[0].ipv4.routingTable\""
par CombinedNetwork.ue[0].ipv4.ip arpModule "\"CombinedNetwork.ue[0].ipv4.arp\""
par CombinedNetwork.ue[0].ipv4.ip icmpModule "\"CombinedNetwork.ue[0].ipv4.icmp\""
par CombinedNetwork.ue[0].ipv4.ip crcMode "\"declared\""
attr enum declared,computed
par CombinedNetwork.ue[0].ipv4.ip timeToLive 32
par CombinedNetwork.ue[0].ipv4.ip multicastTimeToLive 32
par CombinedNetwork.ue[0].ipv4.ip fragmentTimeout 60s
attr unit s
par CombinedNetwork.ue[0].ipv4.ip limitedBroadcast false
par CombinedNetwork.ue[0].ipv4.ip directBroadcastInterfaces "\"\""
scalar CombinedNetwork.ue[0].ipv4.ip packetDropAddressResolutionFailed:count 0
attr interpolationmode none
attr recordingmode count
attr source packetDropReasonIsAddressResolutionFailed(packetDropped)
attr title "packet drop: address resolution failed, count"
scalar CombinedNetwork.ue[0].ipv4.ip packetDropAddressResolutionFailed:sum(packetBytes) 0
attr interpolationmode none
attr recordingmode sum(packetBytes)
attr source packetDropReasonIsAddressResolutionFailed(packetDropped)
attr title "packet drop: address resolution failed, sum(packetBytes)"
scalar CombinedNetwork.ue[0].ipv4.ip packetDropHopLimitReached:count 0
attr interpolationmode none
attr recordingmode count
attr source packetDropReasonIsHopLimitReached(packetDropped)
attr title "packet drop: hop limit reached, count"
scalar CombinedNetwork.ue[0].ipv4.ip packetDropHopLimitReached:sum(packetBytes) 0
attr interpolationmode none
attr recordingmode sum(packetBytes)
attr source packetDropReasonIsHopLimitReached(packetDropped)
attr title "packet drop: hop limit reached, sum(packetBytes)"
scalar CombinedNetwork.ue[0].ipv4.ip packetDropForwardingDisabled:count 0
attr interpolationmode none
attr recordingmode count
attr source packetDropReasonIsForwardingDisabled(packetDropped)
attr title "packet drop: forwarding disabled, count"
scalar CombinedNetwork.ue[0].ipv4.ip packetDropForwardingDisabled:sum(packetBytes) 0
attr interpolationmode none
attr recordingmode sum(packetBytes)
attr source packetDropReasonIsForwardingDisabled(packetDropped)
attr title "packet drop: forwarding disabled, sum(packetBytes)"
scalar CombinedNetwork.ue[0].ipv4.ip packetDropNoInterfaceFound:count 0
attr interpolationmode none
attr recordingmode count
attr source packetDropReasonIsNoInterfaceFound(packetDropped)
attr title "packet drop: no interface found, count"
scalar CombinedNetwork.ue[0].ipv4.ip packetDropNoInterfaceFound:sum(packetBytes) 0
attr interpolationmode none
attr recordingmode sum(packetBytes)
attr source packetDropReasonIsNoInterfaceFound(packetDropped)
attr title "packet drop: no interface found, sum(packetBytes)"
scalar CombinedNetwork.ue[0].ipv4.ip packetDropNoRouteFound:count 0
attr interpolationmode none
attr recordingmode count
attr source packetDropReasonIsNoRouteFound(packetDropped)
attr title "packet drop: no route found, count"
scalar CombinedNetwork.ue[0].ipv4.ip packetDropNoRouteFound:sum(packetBytes) 0
attr interpolationmode none
attr recordingmode sum(packetBytes)
attr source packetDropReasonIsNoRouteFound(packetDropped)
attr title "packet drop: no route found, sum(packetBytes)"
scalar CombinedNetwork.ue[0].ipv4.ip packetDropUndefined:count 0
attr interpolationmode none
attr recordingmode count
attr source packetDropReasonIsUndefined(packetDropped)
attr title "packet drop: undefined, count"
scalar CombinedNetwork.ue[0].ipv4.ip packetDropUndefined:sum(packetBytes) 0
attr interpolationmode none
attr recordingmode sum(packetBytes)
attr source packetDropReasonIsUndefined(packetDropped)
attr title "packet drop: undefined, sum(packetBytes)"
par CombinedNetwork.ue[0].ipv4.arp typename "\"inet.networklayer.arp.ipv4.Arp\""
par CombinedNetwork.ue[0].ipv4.arp interfaceTableModule "\"CombinedNetwork.ue[0].interfaceTable\""
par CombinedNetwork.ue[0].ipv4.arp routingTableModule "\"CombinedNetwork.ue[0].ipv4.routingTable\""
par CombinedNetwork.ue[0].ipv4.arp retryTimeout 1s
attr unit s
par CombinedNetwork.ue[0].ipv4.arp retryCount 3
par CombinedNetwork.ue[0].ipv4.arp cacheTimeout 120s
attr unit s
par CombinedNetwork.ue[0].ipv4.arp proxyArpInterfaces "\"*\""
scalar CombinedNetwork.ue[0].ipv4.arp arpReplySent:count 0
attr recordingmode count
attr source arpReplySent
attr title "ARP replies sent, count"
scalar CombinedNetwork.ue[0].ipv4.arp arpReplySent:sum(packetBytes) 0
attr recordingmode sum(packetBytes)
attr source arpReplySent
attr title "ARP replies sent, sum(packetBytes)"
scalar CombinedNetwork.ue[0].ipv4.arp arpRequestSent:count 0
attr recordingmode count
attr source arpRequestSent
attr title "ARP request sent, count"
scalar CombinedNetwork.ue[0].ipv4.arp arpRequestSent:sum(packetBytes) 0
attr recordingmode sum(packetBytes)
attr source arpRequestSent
attr title "ARP request sent, sum(packetBytes)"
scalar CombinedNetwork.ue[0].ipv4.arp arpResolutionFailed:count 0
attr recordingmode count
attr title "ARP failed resolutions, count"
scalar CombinedNetwork.ue[0].ipv4.arp arpResolutionCompleted:count 0
attr recordingmode count
attr title "ARP completed resolutions, count"
scalar CombinedNetwork.ue[0].ipv4.arp arpResolutionInitiated:count 0
attr recordingmode count
attr title "ARP initiated resolutions, count"
par CombinedNetwork.ue[0].ipv4.lp typename "\"inet.common.MessageDispatcher\""
par CombinedNetwork.ue[0].ipv4.lp displayStringTextFormat "\"processed %p pk (%l)\""
par CombinedNetwork.ue[0].ipv4.lp forwardServiceRegistration true
par CombinedNetwork.ue[0].ipv4.lp forwardProtocolRegistration true
par CombinedNetwork.ue[0].ipv4 typename "\"inet.networklayer.ipv4.Ipv4NetworkLayer\""
par CombinedNetwork.ue[0].ipv4 forwarding false
par CombinedNetwork.ue[0].ipv4 multicastForwarding false
par CombinedNetwork.ue[0].ipv4 interfaceTableModule "\"CombinedNetwork.ue[0].interfaceTable\""
par CombinedNetwork.ue[0].ipv4 displayStringTextFormat "\"%i\""
par CombinedNetwork.ue[0].udp typename "\"inet.transportlayer.udp.Udp\""
par CombinedNetwork.ue[0].udp interfaceTableModule "\"CombinedNetwork.ue[0].interfaceTable\""
par CombinedNetwork.ue[0].udp icmpModule "\"^.ipv4.icmp\""
par CombinedNetwork.ue[0].udp icmpv6Module "\"^.ipv6.icmpv6\""
par CombinedNetwork.ue[0].udp crcMode "\"declared\""
attr enum disabled,declared,computed
par CombinedNetwork.ue[0].udp defaultMulticastLoop true
scalar CombinedNetwork.ue[0].udp packetReceived:count 0
attr interpolationmode none
attr recordingmode count
attr source packetReceived
attr title "packets received, count"
scalar CombinedNetwork.ue[0].udp packetReceived:sum(packetBytes) 0
attr interpolationmode none
attr recordingmode sum(packetBytes)
attr source packetReceived
attr title "packets received, sum(packetBytes)"
scalar CombinedNetwork.ue[0].udp packetSent:count 0
attr interpolationmode none
attr recordingmode count
attr source packetSent
attr title "packets sent, count"
scalar CombinedNetwork.ue[0].udp packetSent:sum(packetBytes) 0
attr interpolationmode none
attr recordingmode sum(packetBytes)
attr source packetSent
attr title "packets sent, sum(packetBytes)"
scalar CombinedNetwork.ue[0].udp passedUpPk:count 0
attr interpolationmode none
attr recordingmode count
attr source packetSentToUpper
attr title "packets passed up, count"
scalar CombinedNetwork.ue[0].udp droppedPkWrongPort:count 0
attr interpolationmode none
attr recordingmode count
attr source packetDropReasonIsNoPortFound(packetDropped)
attr title "packets dropped (wrong port), count"
scalar CombinedNetwork.ue[0].udp droppedPkBadChecksum:count 0
attr interpolationmode none
attr recordingmode count
attr source packetDropReasonIsIncorrectlyReceived(packetDropped)
attr title "packets dropped (checksum error), count"
par CombinedNetwork.ue[0].tcp typename "\"inet.transportlayer.tcp.Tcp\""
par CombinedNetwork.ue[0].tcp crcMode "\"declared\""
attr enum declared,computed
par CombinedNetwork.ue[0].tcp advertisedWindow 7504
par CombinedNetwork.ue[0].tcp delayedAcksEnabled false
par CombinedNetwork.ue[0].tcp nagleEnabled true
par CombinedNetwork.ue[0].tcp limitedTransmitEnabled false
par CombinedNetwork.ue[0].tcp increasedIWEnabled false
par CombinedNetwork.ue[0].tcp sackSupport false
par CombinedNetwork.ue[0].tcp windowScalingSupport false
par CombinedNetwork.ue[0].tcp windowScalingFactor -1
par CombinedNetwork.ue[0].tcp timestampSupport false
par CombinedNetwork.ue[0].tcp mss 536
par CombinedNetwork.ue[0].tcp msl 120s
attr unit s
par CombinedNetwork.ue[0].tcp tcpAlgorithmClass "\"TcpReno\""
par CombinedNetwork.ue[0].tcp useDataNotification false
par CombinedNetwork.ue[0].tcp dupthresh 3
par CombinedNetwork.ue[0].tcp initialSsthresh 4294967295
par CombinedNetwork.ue[0].tcp stopOperationExtraTime 0s
attr unit s
par CombinedNetwork.ue[0].tcp stopOperationTimeout 2s
attr unit s
par CombinedNetwork.ue[0].tcp ecnWillingness false
par CombinedNetwork.ue[0].tcp dctcpGamma 0.0625
par CombinedNetwork.ue[0].at typename "\"inet.common.MessageDispatcher\""
par CombinedNetwork.ue[0].at displayStringTextFormat "\"processed %p pk (%l)\""
par CombinedNetwork.ue[0].at forwardServiceRegistration true
par CombinedNetwork.ue[0].at forwardProtocolRegistration true
par CombinedNetwork.ue[0].tn typename "\"inet.common.MessageDispatcher\""
par CombinedNetwork.ue[0].tn displayStringTextFormat "\"processed %p pk (%l)\""
par CombinedNetwork.ue[0].tn forwardServiceRegistration true
par CombinedNetwork.ue[0].tn forwardProtocolRegistration true
par CombinedNetwork.ue[0].nl typename "\"inet.common.MessageDispatcher\""
par CombinedNetwork.ue[0].nl displayStringTextFormat "\"processed %p pk (%l)\""
par CombinedNetwork.ue[0].nl forwardServiceRegistration true
par CombinedNetwork.ue[0].nl forwardProtocolRegistration true
par CombinedNetwork.ue[0] typename "\"simu5g.nodes.Ue\""
par CombinedNetwork.ue[0] numApps 0
par CombinedNetwork.ue[0] hasUdp true
par CombinedNetwork.ue[0] hasTcp true
par CombinedNetwork.ue[0] hasSctp false
par CombinedNetwork.ue[0] nodeType "\"UE\""
par CombinedNetwork.ue[0] masterId 1
attr mutable ""
par CombinedNetwork.ue[0] macNodeId 1030
attr mutable ""
par CombinedNetwork.ue[0] macCellId 1
attr mutable ""
par CombinedNetwork.ue[0] nicType "\"LteNicUe\""
par CombinedNetwork.ue[0] hasIpv4 true
par CombinedNetwork.ue[0] hasIpv6 false
par CombinedNetwork.ue[0] numEthInterfaces 0
par CombinedNetwork.ue[0] extHostAddress "\"\""
par CombinedNetwork.ue[0] numLoInterfaces 1
par CombinedNetwork.ue[0] numPcapRecorders 0
par CombinedNetwork.ue[0] hasRNISupport false
par CombinedNetwork.eventGenerator typename "\"simu5g.apps.d2dMultihop.eventGenerator.EventGenerator\""
par CombinedNetwork.eventGenerator startTime 0.1s
attr unit s
par CombinedNetwork.eventGenerator eventPeriod 1s
attr unit s
par CombinedNetwork.eventGenerator singleEventSource true
par CombinedNetwork.eventGenerator forceStartingCoord false
par CombinedNetwork.eventGenerator startingCoordX -1m
attr unit m
par CombinedNetwork.eventGenerator startingCoordY -1m
attr unit m
par CombinedNetwork.eventGenerator startingUe 0
par CombinedNetwork.d2dMultihopStatistics typename "\"simu5g.apps.d2dMultihop.statistics.MultihopD2DStatistics\""
statistic CombinedNetwork.d2dMultihopStatistics d2dMultihopEventCompleteDeliveries:stats
field count 0
field mean nan
field stddev nan
field min nan
field max nan
field sum 0
field sqrsum 0
attr recordingmode stats
attr source d2dMultihopEventCompleteDeliveries
attr title "Avg complete-deliveries within the area"
attr unit ""
statistic CombinedNetwork.d2dMultihopStatistics d2dMultihopEventRcvdDupMsg:stats
field count 0
field mean nan
field stddev nan
field min nan
field max nan
field sum 0
field sqrsum 0
attr recordingmode stats
attr source d2dMultihopEventRcvdDupMsg
attr title "Avg num of duplicates within the area"
attr unit ""
scalar CombinedNetwork.d2dMultihopStatistics d2dMultihopEventTrickleSuppressedMsg:mean nan
attr recordingmode mean
attr source d2dMultihopEventTrickleSuppressedMsg
attr title "Avg suppressed transmissions for broadcasting a message, mean"
attr unit ""
scalar CombinedNetwork.d2dMultihopStatistics d2dMultihopEventTrickleSuppressedMsg:sum 0
attr recordingmode sum
attr source d2dMultihopEventTrickleSuppressedMsg
attr title "Avg suppressed transmissions for broadcasting a message, sum"
attr unit ""
scalar CombinedNetwork.d2dMultihopStatistics d2dMultihopEventTrickleSuppressedMsg:min nan
attr recordingmode min
attr source d2dMultihopEventTrickleSuppressedMsg
attr title "Avg suppressed transmissions for broadcasting a message, min"
attr unit ""
scalar CombinedNetwork.d2dMultihopStatistics d2dMultihopEventTrickleSuppressedMsg:max nan
attr recordingmode max
attr source d2dMultihopEventTrickleSuppressedMsg
attr title "Avg suppressed transmissions for broadcasting a message, max"
attr unit ""
scalar CombinedNetwork.d2dMultihopStatistics d2dMultihopEventSentMsg:mean nan
attr recordingmode mean
attr source d2dMultihopEventSentMsg
attr title "Avg transmissions for broadcasting a message, mean"
attr unit ""
scalar CombinedNetwork.d2dMultihopStatistics d2dMultihopEventSentMsg:sum 0
attr recordingmode sum
attr source d2dMultihopEventSentMsg
attr title "Avg transmissions for broadcasting a message, sum"
attr unit ""
scalar CombinedNetwork.d2dMultihopStatistics d2dMultihopEventSentMsg:min nan
attr recordingmode min
attr source d2dMultihopEventSentMsg
attr title "Avg transmissions for broadcasting a message, min"
attr unit ""
scalar CombinedNetwork.d2dMultihopStatistics d2dMultihopEventSentMsg:max nan
attr recordingmode max
attr source d2dMultihopEventSentMsg
attr title "Avg transmissions for broadcasting a message, max"
attr unit ""
scalar CombinedNetwork.d2dMultihopStatistics d2dMultihopEventDelay95Per:mean nan
attr recordingmode mean
attr source d2dMultihopEventDelay95Per
attr title "95th percentile of the delay of broadcasting within the area, mean"
attr unit ""
scalar CombinedNetwork.d2dMultihopStatistics d2dMultihopEventDelay95Per:sum 0
attr recordingmode sum
attr source d2dMultihopEventDelay95Per
attr title "95th percentile of the delay of broadcasting within the area, sum"
attr unit ""
scalar CombinedNetwork.d2dMultihopStatistics d2dMultihopEventDelay95Per:min nan
attr recordingmode min
attr source d2dMultihopEventDelay95Per
attr title "95th percentile of the delay of broadcasting within the area, min"
attr unit ""
scalar CombinedNetwork.d2dMultihopStatistics d2dMultihopEventDelay95Per:max nan
attr recordingmode max
attr source d2dMultihopEventDelay95Per
attr title "95th percentile of the delay of broadcasting within the area, max"
attr unit ""
scalar CombinedNetwork.d2dMultihopStatistics d2dMultihopEventDelay:mean nan
attr recordingmode mean
attr source d2dMultihopEventDelay
attr title "Avg delay of broadcasting within the area, mean"
attr unit ""
scalar CombinedNetwork.d2dMultihopStatistics d2dMultihopEventDelay:sum 0
attr recordingmode sum
attr source d2dMultihopEventDelay
attr title "Avg delay of broadcasting within the area, sum"
attr unit ""
scalar CombinedNetwork.d2dMultihopStatistics d2dMultihopEventDelay:min nan
attr recordingmode min
attr source d2dMultihopEventDelay
attr title "Avg delay of broadcasting within the area, min"
attr unit ""
scalar CombinedNetwork.d2dMultihopStatistics d2dMultihopEventDelay:max nan
attr recordingmode max
attr source d2dMultihopEventDelay
attr title "Avg delay of broadcasting within the area, max"
attr unit ""
scalar CombinedNetwork.d2dMultihopStatistics d2dMultihopEventDeliveryRatio:mean nan
attr recordingmode mean
attr source d2dMultihopEventDeliveryRatio
attr title "Avg delivery ratio within the area, mean"
attr unit ""
scalar CombinedNetwork.d2dMultihopStatistics d2dMultihopEventDeliveryRatio:sum 0
attr recordingmode sum
attr source d2dMultihopEventDeliveryRatio
attr title "Avg delivery ratio within the area, sum"
attr unit ""
scalar CombinedNetwork.d2dMultihopStatistics d2dMultihopEventDeliveryRatio:min nan
attr recordingmode min
attr source d2dMultihopEventDeliveryRatio
attr title "Avg delivery ratio within the area, min"
attr unit ""
scalar CombinedNetwork.d2dMultihopStatistics d2dMultihopEventDeliveryRatio:max nan
attr recordingmode max
attr source d2dMultihopEventDeliveryRatio
attr title "Avg delivery ratio within the area, max"
attr unit ""
par CombinedNetwork typename "\"_4gltefinal.simulations.CombinedNetwork\""
par CombinedNetwork numUe1 1
par CombinedNetwork numUe2 1
par CombinedNetwork numUe3 1
par CombinedNetwork numUe4 1
par CombinedNetwork numUe5 1
par CombinedNetwork numExtCells 0
par CombinedNetwork numUeCell 0
par CombinedNetwork numUeD2DTx 0
par CombinedNetwork numUeD2DRx 0
par CombinedNetwork numUe 1
par CombinedNetwork numUeD2D 3

