version 3
run Handover-General-0-20241122-17:36:17-14280
attr configname Handover-General
attr datetime 20241122-17:36:17
attr datetimef 20241122-173617
attr experiment Handover-General
attr inifile omnetpp.ini
attr iterationvars ""
attr iterationvarsd ""
attr iterationvarsf ""
attr measurement ""
attr network finalproject.simulations.LTE.networks.MultiCell
attr processid 14280
attr repetition 0
attr replication #0
attr resultdir results
attr runnumber 0
attr seedset 0
config image-path ../../inet4.5/images;../../simu5g/images
config **.ue1*.macCellId 1
config **.ue1*.masterId 1
config **.ue2*.macCellId 2
config **.ue2*.masterId 2
config **.cellularNic.phy.enableHandover true
config *.eNodeB*.numX2Apps 1
config *.eNodeB*.x2App[*].server.localPort "5000 + ancestorIndex(1)"
config *.eNodeB1.x2App[0].client.connectAddress "\"eNodeB2%x2ppp0\""
config *.eNodeB2.x2App[0].client.connectAddress "\"eNodeB1%x2ppp0\""
config *.eNodeB1.mobility.initialX 300m
config *.eNodeB1.mobility.initialY 250m
config *.eNodeB2.mobility.initialX 400m
config *.eNodeB2.mobility.initialY 250m
config *.ue11.mobility.initialX 350m
config *.ue11.mobility.initialY 280m
config *.ue11.mobility.speed 10mps
config *.ue11.mobility.initialMovementHeading 0deg
config *.ue11.mobility.typename LinearMobility
config *.ue11.mobility.constraintAreaMinX 250m
config *.ue11.mobility.constraintAreaMaxX 450m
config *.ue12.mobility.initialX 320m
config *.ue12.mobility.initialY 280m
config *.ue12.mobility.speed 10mps
config *.ue12.mobility.initialMovementHeading 0deg
config *.ue12.mobility.typename LinearMobility
config *.ue12.mobility.constraintAreaMinX 250m
config *.ue12.mobility.constraintAreaMaxX 450m
config *.ue*.mobility.constraintAreaMaxX 750m
config *.ue*.mobility.constraintAreaMaxY 400m
config *.ue*.mobility.constraintAreaMinX 50m
config *.ue*.mobility.constraintAreaMinY 100m
config *.ue2*.mobility.initialX uniform(450m,750m)
config *.ue2*.mobility.initialY uniform(100m,400m)
config *.ue*.mobility.initialZ 0m
config **.eNodeB*.cellularNic.phy.targetBler 0.004
config image-path ../../images
config output-scalar-file-append false
config sim-time-limit 20s
config network finalproject.simulations.LTE.networks.MultiCell
config **.routingRecorder.enabled false
config **.vector-recording true
config *.app[0].sendInterval 10ms
config *.app[0].packetLength 128B
config **.cellularNic.channelModel[0].shadowing false
config **.cellularNic.channelModel[0].fading false
config **.mobility.constraintAreaMinZ 0m
config **.mobility.constraintAreaMaxZ 3m
config **.mobility.initFromDisplayString false
config **.numBands 25
config **.ueTxPower 26
config **.eNodeBTxPower 40
config *.configurator.config "xmldoc(\"./demo.xml\")"
config **.hasRNISupport false

scalar MultiCell.eNodeB1.x2App[0].client ums 1452
scalar MultiCell.eNodeB2.x2App[0].client ums 1452
par MultiCell.server.pppg$o[0].channel typename "\"inet.node.ethernet.Eth10G\""
par MultiCell.server.pppg$o[0].channel disabled false
attr mutable ""
par MultiCell.server.pppg$o[0].channel delay 5e-08s
attr mutable ""
attr unit s
par MultiCell.server.pppg$o[0].channel datarate 1e+10bps
attr mutable ""
attr unit bps
par MultiCell.server.pppg$o[0].channel ber 0
attr mutable ""
par MultiCell.server.pppg$o[0].channel per 0
attr mutable ""
par MultiCell.server.pppg$o[0].channel length 10m
attr unit m
par MultiCell.router.pppg$o[0].channel typename "\"inet.node.ethernet.Eth10G\""
par MultiCell.router.pppg$o[0].channel disabled false
attr mutable ""
par MultiCell.router.pppg$o[0].channel delay 5e-08s
attr mutable ""
attr unit s
par MultiCell.router.pppg$o[0].channel datarate 1e+10bps
attr mutable ""
attr unit bps
par MultiCell.router.pppg$o[0].channel ber 0
attr mutable ""
par MultiCell.router.pppg$o[0].channel per 0
attr mutable ""
par MultiCell.router.pppg$o[0].channel length 10m
attr unit m
par MultiCell.router.pppg$o[1].channel typename "\"inet.node.ethernet.Eth10G\""
par MultiCell.router.pppg$o[1].channel disabled false
attr mutable ""
par MultiCell.router.pppg$o[1].channel delay 5e-08s
attr mutable ""
attr unit s
par MultiCell.router.pppg$o[1].channel datarate 1e+10bps
attr mutable ""
attr unit bps
par MultiCell.router.pppg$o[1].channel ber 0
attr mutable ""
par MultiCell.router.pppg$o[1].channel per 0
attr mutable ""
par MultiCell.router.pppg$o[1].channel length 10m
attr unit m
par MultiCell.pgw.filterGate$o.channel typename "\"inet.node.ethernet.Eth10G\""
par MultiCell.pgw.filterGate$o.channel disabled false
attr mutable ""
par MultiCell.pgw.filterGate$o.channel delay 5e-08s
attr mutable ""
attr unit s
par MultiCell.pgw.filterGate$o.channel datarate 1e+10bps
attr mutable ""
attr unit bps
par MultiCell.pgw.filterGate$o.channel ber 0
attr mutable ""
par MultiCell.pgw.filterGate$o.channel per 0
attr mutable ""
par MultiCell.pgw.filterGate$o.channel length 10m
attr unit m
par MultiCell.pgw.pppg$o[0].channel typename "\"inet.node.ethernet.Eth10G\""
par MultiCell.pgw.pppg$o[0].channel disabled false
attr mutable ""
par MultiCell.pgw.pppg$o[0].channel delay 5e-08s
attr mutable ""
attr unit s
par MultiCell.pgw.pppg$o[0].channel datarate 1e+10bps
attr mutable ""
attr unit bps
par MultiCell.pgw.pppg$o[0].channel ber 0
attr mutable ""
par MultiCell.pgw.pppg$o[0].channel per 0
attr mutable ""
par MultiCell.pgw.pppg$o[0].channel length 10m
attr unit m
par MultiCell.eNodeB1.ppp$o.channel typename "\"inet.node.ethernet.Eth10G\""
par MultiCell.eNodeB1.ppp$o.channel disabled false
attr mutable ""
par MultiCell.eNodeB1.ppp$o.channel delay 5e-08s
attr mutable ""
attr unit s
par MultiCell.eNodeB1.ppp$o.channel datarate 1e+10bps
attr mutable ""
attr unit bps
par MultiCell.eNodeB1.ppp$o.channel ber 0
attr mutable ""
par MultiCell.eNodeB1.ppp$o.channel per 0
attr mutable ""
par MultiCell.eNodeB1.ppp$o.channel length 10m
attr unit m
par MultiCell.pgw.pppg$o[1].channel typename "\"inet.node.ethernet.Eth10G\""
par MultiCell.pgw.pppg$o[1].channel disabled false
attr mutable ""
par MultiCell.pgw.pppg$o[1].channel delay 5e-08s
attr mutable ""
attr unit s
par MultiCell.pgw.pppg$o[1].channel datarate 1e+10bps
attr mutable ""
attr unit bps
par MultiCell.pgw.pppg$o[1].channel ber 0
attr mutable ""
par MultiCell.pgw.pppg$o[1].channel per 0
attr mutable ""
par MultiCell.pgw.pppg$o[1].channel length 10m
attr unit m
par MultiCell.eNodeB2.ppp$o.channel typename "\"inet.node.ethernet.Eth10G\""
par MultiCell.eNodeB2.ppp$o.channel disabled false
attr mutable ""
par MultiCell.eNodeB2.ppp$o.channel delay 5e-08s
attr mutable ""
attr unit s
par MultiCell.eNodeB2.ppp$o.channel datarate 1e+10bps
attr mutable ""
attr unit bps
par MultiCell.eNodeB2.ppp$o.channel ber 0
attr mutable ""
par MultiCell.eNodeB2.ppp$o.channel per 0
attr mutable ""
par MultiCell.eNodeB2.ppp$o.channel length 10m
attr unit m
par MultiCell.eNodeB1.x2$o[0].channel typename "\"inet.node.ethernet.Eth10G\""
par MultiCell.eNodeB1.x2$o[0].channel disabled false
attr mutable ""
par MultiCell.eNodeB1.x2$o[0].channel delay 5e-08s
attr mutable ""
attr unit s
par MultiCell.eNodeB1.x2$o[0].channel datarate 1e+10bps
attr mutable ""
attr unit bps
par MultiCell.eNodeB1.x2$o[0].channel ber 0
attr mutable ""
par MultiCell.eNodeB1.x2$o[0].channel per 0
attr mutable ""
par MultiCell.eNodeB1.x2$o[0].channel length 10m
attr unit m
par MultiCell.eNodeB2.x2$o[0].channel typename "\"inet.node.ethernet.Eth10G\""
par MultiCell.eNodeB2.x2$o[0].channel disabled false
attr mutable ""
par MultiCell.eNodeB2.x2$o[0].channel delay 5e-08s
attr mutable ""
attr unit s
par MultiCell.eNodeB2.x2$o[0].channel datarate 1e+10bps
attr mutable ""
attr unit bps
par MultiCell.eNodeB2.x2$o[0].channel ber 0
attr mutable ""
par MultiCell.eNodeB2.x2$o[0].channel per 0
attr mutable ""
par MultiCell.eNodeB2.x2$o[0].channel length 10m
attr unit m
par MultiCell.channelControl typename "\"simu5g.world.radio.LteChannelControl\""
par MultiCell.channelControl coreDebug false
par MultiCell.channelControl pMax 20mW
attr unit mW
par MultiCell.channelControl sat -110dBm
attr unit dBm
par MultiCell.channelControl alpha 2
par MultiCell.channelControl carrierFrequency 2.4e+09Hz
attr unit Hz
par MultiCell.channelControl numChannels 1
par MultiCell.channelControl propagationModel "\"FreeSpaceModel\""
attr enum FreeSpaceModel,TwoRayGroundModel,RiceModel,RayleighModel,NakagamiModel,LogNormalShadowingModel
par MultiCell.routingRecorder typename "\"inet.networklayer.ipv4.RoutingTableRecorder\""
par MultiCell.routingRecorder enabled false
par MultiCell.configurator typename "\"inet.networklayer.configurator.ipv4.Ipv4NetworkConfigurator\""
par MultiCell.configurator minLinkWeight 0.001
par MultiCell.configurator configureIsolatedNetworksSeparatly false
par MultiCell.configurator config "<config>...</config> at C:/Users/clayyClown/Documents/omnetpp-6.0.3/projects/4GLteFinal/simulations/\\./demo.xml:1"
par MultiCell.configurator assignAddresses true
par MultiCell.configurator assignUniqueAddresses true
par MultiCell.configurator assignDisjunctSubnetAddresses true
par MultiCell.configurator addStaticRoutes true
par MultiCell.configurator addDefaultRoutes true
par MultiCell.configurator addSubnetRoutes true
par MultiCell.configurator addDirectRoutes true
par MultiCell.configurator optimizeRoutes true
par MultiCell.configurator dumpTopology false
par MultiCell.configurator dumpLinks false
par MultiCell.configurator dumpAddresses false
par MultiCell.configurator dumpRoutes false
par MultiCell.configurator dumpConfig "\"\""
par MultiCell.binder typename "\"simu5g.common.binder.Binder\""
par MultiCell.binder blerShift 0
par MultiCell.binder maxDataRatePerRb 1.16Mbps
attr unit Mbps
par MultiCell.binder printTrafficGeneratorConfig false
par MultiCell.carrierAggregation.componentCarrier[0] typename "\"simu5g.common.carrierAggregation.ComponentCarrier\""
par MultiCell.carrierAggregation.componentCarrier[0] carrierFrequency 2GHz
attr unit GHz
par MultiCell.carrierAggregation.componentCarrier[0] numBands 25
par MultiCell.carrierAggregation.componentCarrier[0] numerologyIndex 0
par MultiCell.carrierAggregation.componentCarrier[0] useTdd false
par MultiCell.carrierAggregation.componentCarrier[0] tddNumSymbolsDl 7
par MultiCell.carrierAggregation.componentCarrier[0] tddNumSymbolsUl 7
par MultiCell.carrierAggregation typename "\"simu5g.common.carrierAggregation.CarrierAggregation\""
par MultiCell.carrierAggregation numComponentCarriers 1
par MultiCell.server.pppg$i[0].channel typename "\"ned.IdealChannel\""
par MultiCell.server.ppp[0].phys$o.channel typename "\"ned.IdealChannel\""
par MultiCell.server.interfaceTable typename "\"inet.networklayer.common.InterfaceTable\""
par MultiCell.server.interfaceTable displayAddresses false
par MultiCell.server.cb typename "\"inet.common.MessageDispatcher\""
par MultiCell.server.cb displayStringTextFormat "\"processed %p pk (%l)\""
par MultiCell.server.cb forwardServiceRegistration true
par MultiCell.server.cb forwardProtocolRegistration true
par MultiCell.server.bl typename "\"inet.common.MessageDispatcher\""
par MultiCell.server.bl displayStringTextFormat "\"processed %p pk (%l)\""
par MultiCell.server.bl forwardServiceRegistration true
par MultiCell.server.bl forwardProtocolRegistration true
par MultiCell.server.li typename "\"inet.common.MessageDispatcher\""
par MultiCell.server.li displayStringTextFormat "\"processed %p pk (%l)\""
par MultiCell.server.li forwardServiceRegistration true
par MultiCell.server.li forwardProtocolRegistration true
par MultiCell.server.lo[0].upperLayerIn.channel typename "\"ned.IdealChannel\""
par MultiCell.server.lo[0].lo.upperLayerOut.channel typename "\"ned.IdealChannel\""
par MultiCell.server.lo[0].lo typename "\"inet.linklayer.loopback.Loopback\""
par MultiCell.server.lo[0].lo interfaceTableModule "\"MultiCell.server.interfaceTable\""
par MultiCell.server.lo[0].lo mtu 4470B
attr unit B
scalar MultiCell.server.lo[0].lo rcvdPkFromHl:count 0
attr interpolationmode none
attr recordingmode count
attr source packetReceivedFromUpper
attr title "packets received from higher layer, count"
scalar MultiCell.server.lo[0].lo rcvdPkFromHl:sum(packetBytes) 0
attr interpolationmode none
attr recordingmode sum(packetBytes)
attr source packetReceivedFromUpper
attr title "packets received from higher layer, sum(packetBytes)"
scalar MultiCell.server.lo[0].lo passedUpPk:count 0
attr interpolationmode none
attr recordingmode count
attr source packetSentToUpper
attr title "packets passed to higher layer, count"
scalar MultiCell.server.lo[0].lo passedUpPk:sum(packetBytes) 0
attr interpolationmode none
attr recordingmode sum(packetBytes)
attr source packetSentToUpper
attr title "packets passed to higher layer, sum(packetBytes)"
par MultiCell.server.lo[0] typename "\"inet.linklayer.loopback.LoopbackInterface\""
par MultiCell.server.lo[0] displayStringTextFormat "\"%a (%i)\\n%m\""
par MultiCell.server.lo[0] recordPcap false
par MultiCell.server.lo[0] numPcapRecorders 0
par MultiCell.server.lo[0] interfaceTableModule "\"MultiCell.server.interfaceTable\""
scalar MultiCell.server.lo[0] packetDropInterfaceDown:count 0
attr interpolationmode none
attr recordingmode count
attr source packetDropReasonIsInterfaceDown(packetDropped)
attr title "packet drops: interface down, count"
scalar MultiCell.server.lo[0] packetDropInterfaceDown:sum(packetBytes) 0
attr interpolationmode none
attr recordingmode sum(packetBytes)
attr source packetDropReasonIsInterfaceDown(packetDropped)
attr title "packet drops: interface down, sum(packetBytes)"
scalar MultiCell.server.lo[0] packetDropNoCarrier:count 0
attr interpolationmode none
attr recordingmode count
attr source packetDropReasonIsNoCarrier(packetDropped)
attr title "packet drops: no carrier, count"
scalar MultiCell.server.lo[0] packetDropNoCarrier:sum(packetBytes) 0
attr interpolationmode none
attr recordingmode sum(packetBytes)
attr source packetDropReasonIsNoCarrier(packetDropped)
attr title "packet drops: no carrier, sum(packetBytes)"
par MultiCell.server.ppp[0].phys$i.channel typename "\"ned.IdealChannel\""
par MultiCell.server.ppp[0].ppp.phys$o.channel typename "\"ned.IdealChannel\""
par MultiCell.server.ppp[0].ppp.upperLayerOut.channel typename "\"ned.IdealChannel\""
par MultiCell.server.ppp[0].upperLayerIn.channel typename "\"ned.IdealChannel\""
par MultiCell.server.ppp[0].queue typename "\"inet.queueing.queue.DropTailQueue\""
par MultiCell.server.ppp[0].queue displayStringTextFormat "\"contains %p pk (%l) pushed %u\\npulled %o removed %r dropped %d\""
par MultiCell.server.ppp[0].queue packetCapacity 10000
par MultiCell.server.ppp[0].queue dataCapacity -1b
attr unit b
par MultiCell.server.ppp[0].queue dropperClass "\"inet::queueing::PacketAtCollectionEndDropper\""
par MultiCell.server.ppp[0].queue comparatorClass "\"\""
par MultiCell.server.ppp[0].queue bufferModule "\"\""
scalar MultiCell.server.ppp[0].queue queueLength:last 0
attr autoWarmupFilter false
attr interpolationmode sample-hold
attr recordingmode last
attr source "warmup(atomic(constant0(packetPushEnded) + count(packetPushStarted) - count(packetPulled) - count(packetRemoved) - count(packetDropped)))"
attr title "queue length, last"
attr unit pk
scalar MultiCell.server.ppp[0].queue queueLength:max 0
attr autoWarmupFilter false
attr interpolationmode sample-hold
attr recordingmode max
attr source "warmup(atomic(constant0(packetPushEnded) + count(packetPushStarted) - count(packetPulled) - count(packetRemoved) - count(packetDropped)))"
attr title "queue length, max"
attr unit pk
scalar MultiCell.server.ppp[0].queue queueLength:timeavg 0
attr autoWarmupFilter false
attr interpolationmode sample-hold
attr recordingmode timeavg
attr source "warmup(atomic(constant0(packetPushEnded) + count(packetPushStarted) - count(packetPulled) - count(packetRemoved) - count(packetDropped)))"
attr title "queue length, timeavg"
attr unit pk
scalar MultiCell.server.ppp[0].queue queueBitLength:last 0
attr autoWarmupFilter false
attr interpolationmode sample-hold
attr recordingmode last
attr source "warmup(atomic(constant0(packetPushEnded) + sum(packetLength(packetPushStarted)) - sum(packetLength(packetPulled)) - sum(packetLength(packetRemoved)) - sum(packetLength(packetDropped))))"
attr title "queue bit length, last"
attr unit b
scalar MultiCell.server.ppp[0].queue queueBitLength:max 0
attr autoWarmupFilter false
attr interpolationmode sample-hold
attr recordingmode max
attr source "warmup(atomic(constant0(packetPushEnded) + sum(packetLength(packetPushStarted)) - sum(packetLength(packetPulled)) - sum(packetLength(packetRemoved)) - sum(packetLength(packetDropped))))"
attr title "queue bit length, max"
attr unit b
scalar MultiCell.server.ppp[0].queue queueBitLength:timeavg 0
attr autoWarmupFilter false
attr interpolationmode sample-hold
attr recordingmode timeavg
attr source "warmup(atomic(constant0(packetPushEnded) + sum(packetLength(packetPushStarted)) - sum(packetLength(packetPulled)) - sum(packetLength(packetRemoved)) - sum(packetLength(packetDropped))))"
attr title "queue bit length, timeavg"
attr unit b
statistic MultiCell.server.ppp[0].queue queueingTime:histogram
field count 0
field mean nan
field stddev nan
field min nan
field max nan
field sum 0
field sqrsum 0
attr interpolationmode none
attr recordingmode histogram
attr source queueingTime(packetPulled)
attr title "queueing times"
attr unit s
bin	-inf	0
bin	0	0
bin	1	0
scalar MultiCell.server.ppp[0].queue outgoingPackets:count 0
attr recordingmode count
attr source packetPulled
attr title "outgoing packets, count"
attr unit pk
scalar MultiCell.server.ppp[0].queue outgoingPacketLengths:sum 0
attr interpolationmode none
attr recordingmode sum
attr source packetLength(packetPulled)
attr title "outgoing packet lengths, sum"
attr unit b
statistic MultiCell.server.ppp[0].queue outgoingPacketLengths:histogram
field count 0
field mean nan
field stddev nan
field min nan
field max nan
field sum 0
field sqrsum 0
attr interpolationmode none
attr recordingmode histogram
attr source packetLength(packetPulled)
attr title "outgoing packet lengths"
attr unit b
bin	-inf	0
bin	0	0
bin	1	0
statistic MultiCell.server.ppp[0].queue flowQueueingTime:histogram
field count 0
field mean nan
field stddev nan
field min nan
field max nan
field sum 0
field sqrsum 0
attr interpolationmode none
attr recordingmode histogram
attr source queueingTime(demuxFlow(packetPulled))
attr title "flow queueing times"
attr unit s
bin	-inf	0
bin	0	0
bin	1	0
scalar MultiCell.server.ppp[0].queue incomingPackets:count 0
attr recordingmode count
attr source packetPushStarted
attr title "incoming packets, count"
attr unit pk
scalar MultiCell.server.ppp[0].queue incomingPacketLengths:sum 0
attr interpolationmode none
attr recordingmode sum
attr source packetLength(packetPushStarted)
attr title "incoming packet lengths, sum"
attr unit b
statistic MultiCell.server.ppp[0].queue incomingPacketLengths:histogram
field count 0
field mean nan
field stddev nan
field min nan
field max nan
field sum 0
field sqrsum 0
attr interpolationmode none
attr recordingmode histogram
attr source packetLength(packetPushStarted)
attr title "incoming packet lengths"
attr unit b
bin	-inf	0
bin	0	0
bin	1	0
scalar MultiCell.server.ppp[0].queue droppedPacketsQueueOverflow:count 0
attr interpolationmode none
attr recordingmode count
attr source packetDropReasonIsQueueOverflow(packetDropped)
attr title "dropped packets: queue overflow, count"
attr unit pk
scalar MultiCell.server.ppp[0].queue droppedPacketLengthsQueueOverflow:sum 0
attr interpolationmode none
attr recordingmode sum
attr source packetLength(packetDropReasonIsQueueOverflow(packetDropped))
attr title "dropped packet lengths: queue overflow, sum"
attr unit b
par MultiCell.server.ppp[0].ppp typename "\"inet.linklayer.ppp.Ppp\""
par MultiCell.server.ppp[0].ppp interfaceTableModule "\"MultiCell.server.interfaceTable\""
par MultiCell.server.ppp[0].ppp displayStringTextFormat "\"rate: %b\\nsent: %s, rcvd: %r\\nqueue: %q, drop: %d\""
par MultiCell.server.ppp[0].ppp sendRawBytes false
par MultiCell.server.ppp[0].ppp mtu 4470B
attr unit B
par MultiCell.server.ppp[0].ppp stopOperationExtraTime -1s
attr unit s
par MultiCell.server.ppp[0].ppp stopOperationTimeout 2s
attr unit s
scalar MultiCell.server.ppp[0].ppp txPk:count 0
attr interpolationmode none
attr recordingmode count
attr source packetSentToLower
attr title "packets transmitted, count"
scalar MultiCell.server.ppp[0].ppp txPk:sum(packetBytes) 0
attr interpolationmode none
attr recordingmode sum(packetBytes)
attr source packetSentToLower
attr title "packets transmitted, sum(packetBytes)"
scalar MultiCell.server.ppp[0].ppp rcvdPkFromHl:count 0
attr interpolationmode none
attr recordingmode count
attr source packetReceivedFromUpper
attr title "packets received from higher layer, count"
scalar MultiCell.server.ppp[0].ppp rcvdPkFromHl:sum(packetBytes) 0
attr interpolationmode none
attr recordingmode sum(packetBytes)
attr source packetReceivedFromUpper
attr title "packets received from higher layer, sum(packetBytes)"
scalar MultiCell.server.ppp[0].ppp passedUpPk:count 0
attr interpolationmode none
attr recordingmode count
attr source packetSentToUpper
attr title "packets passed to higher layer, count"
scalar MultiCell.server.ppp[0].ppp passedUpPk:sum(packetBytes) 0
attr interpolationmode none
attr recordingmode sum(packetBytes)
attr source packetSentToUpper
attr title "packets passed to higher layer, sum(packetBytes)"
scalar MultiCell.server.ppp[0].ppp packetDropIncorrectlyReceived:count 0
attr interpolationmode none
attr recordingmode count
attr source packetDropReasonIsIncorrectlyReceived(packetDropped)
attr title "packet drop: incorrectly received, count"
scalar MultiCell.server.ppp[0].ppp packetDropIncorrectlyReceived:sum(packetBytes) 0
attr interpolationmode none
attr recordingmode sum(packetBytes)
attr source packetDropReasonIsIncorrectlyReceived(packetDropped)
attr title "packet drop: incorrectly received, sum(packetBytes)"
scalar MultiCell.server.ppp[0].ppp packetDropInterfaceDown:count 0
attr interpolationmode none
attr recordingmode count
attr source packetDropReasonIsInterfaceDown(packetDropped)
attr title "packet drop: interface down, count"
scalar MultiCell.server.ppp[0].ppp packetDropInterfaceDown:sum(packetBytes) 0
attr interpolationmode none
attr recordingmode sum(packetBytes)
attr source packetDropReasonIsInterfaceDown(packetDropped)
attr title "packet drop: interface down, sum(packetBytes)"
scalar MultiCell.server.ppp[0].ppp rxPkOk:count 0
attr interpolationmode none
attr recordingmode count
attr source rxPkOk
attr title "packets received OK, count"
scalar MultiCell.server.ppp[0].ppp rxPkOk:sum(packetBytes) 0
attr interpolationmode none
attr recordingmode sum(packetBytes)
attr source rxPkOk
attr title "packets received OK, sum(packetBytes)"
scalar MultiCell.server.ppp[0].ppp transmissionState:timeavg 0
attr interpolationmode sample-hold
attr recordingmode timeavg
attr source transmissionStateChanged
attr title "tx state, timeavg"
par MultiCell.server.ppp[0] typename "\"inet.linklayer.ppp.PppInterface\""
par MultiCell.server.ppp[0] displayStringTextFormat "\"%a (%i)\\n%m\""
par MultiCell.server.ppp[0] recordPcap false
par MultiCell.server.ppp[0] numPcapRecorders 0
par MultiCell.server.ppp[0] interfaceTableModule "\"MultiCell.server.interfaceTable\""
scalar MultiCell.server.ppp[0] packetDropInterfaceDown:count 0
attr interpolationmode none
attr recordingmode count
attr source packetDropReasonIsInterfaceDown(packetDropped)
attr title "packet drops: interface down, count"
scalar MultiCell.server.ppp[0] packetDropInterfaceDown:sum(packetBytes) 0
attr interpolationmode none
attr recordingmode sum(packetBytes)
attr source packetDropReasonIsInterfaceDown(packetDropped)
attr title "packet drops: interface down, sum(packetBytes)"
scalar MultiCell.server.ppp[0] packetDropNoCarrier:count 0
attr interpolationmode none
attr recordingmode count
attr source packetDropReasonIsNoCarrier(packetDropped)
attr title "packet drops: no carrier, count"
scalar MultiCell.server.ppp[0] packetDropNoCarrier:sum(packetBytes) 0
attr interpolationmode none
attr recordingmode sum(packetBytes)
attr source packetDropReasonIsNoCarrier(packetDropped)
attr title "packet drops: no carrier, sum(packetBytes)"
par MultiCell.server.ipv4.transportIn.channel typename "\"ned.IdealChannel\""
par MultiCell.server.ipv4.up.out[0].channel typename "\"ned.IdealChannel\""
par MultiCell.server.ipv4.lp.out[2].channel typename "\"ned.IdealChannel\""
par MultiCell.server.ipv4.ifIn.channel typename "\"ned.IdealChannel\""
par MultiCell.server.ipv4.configurator typename "\"inet.networklayer.configurator.ipv4.Ipv4NodeConfigurator\""
par MultiCell.server.ipv4.configurator interfaceTableModule "\"MultiCell.server.interfaceTable\""
par MultiCell.server.ipv4.configurator routingTableModule "\"MultiCell.server.ipv4.routingTable\""
par MultiCell.server.ipv4.configurator networkConfiguratorModule "\"configurator\""
par MultiCell.server.ipv4.configurator configureRoutingTable true
par MultiCell.server.ipv4.routingTable typename "\"inet.networklayer.ipv4.Ipv4RoutingTable\""
par MultiCell.server.ipv4.routingTable interfaceTableModule "\"MultiCell.server.interfaceTable\""
par MultiCell.server.ipv4.routingTable routerId "\"auto\""
par MultiCell.server.ipv4.routingTable netmaskRoutes "\"*\""
par MultiCell.server.ipv4.routingTable forwarding false
par MultiCell.server.ipv4.routingTable multicastForwarding false
par MultiCell.server.ipv4.routingTable useAdminDist false
par MultiCell.server.ipv4.routingTable routingFile "\"\""
par MultiCell.server.ipv4.natTable typename "\"inet.networklayer.ipv4.Ipv4NatTable\""
par MultiCell.server.ipv4.natTable networkProtocolModule "\"^.ip\""
par MultiCell.server.ipv4.natTable config "<config/> at content:1"
par MultiCell.server.ipv4.up typename "\"inet.common.MessageDispatcher\""
par MultiCell.server.ipv4.up displayStringTextFormat "\"processed %p pk (%l)\""
par MultiCell.server.ipv4.up forwardServiceRegistration true
par MultiCell.server.ipv4.up forwardProtocolRegistration true
par MultiCell.server.ipv4.igmp typename "\"inet.networklayer.ipv4.Igmpv2\""
par MultiCell.server.ipv4.igmp interfaceTableModule "\"MultiCell.server.interfaceTable\""
par MultiCell.server.ipv4.igmp routingTableModule "\"MultiCell.server.ipv4.routingTable\""
par MultiCell.server.ipv4.igmp crcMode "\"declared\""
attr enum declared,computed
par MultiCell.server.ipv4.igmp enabled true
par MultiCell.server.ipv4.igmp robustnessVariable 2
par MultiCell.server.ipv4.igmp queryInterval 125s
attr unit s
par MultiCell.server.ipv4.igmp queryResponseInterval 10s
attr unit s
par MultiCell.server.ipv4.igmp groupMembershipInterval 260s
attr unit s
par MultiCell.server.ipv4.igmp otherQuerierPresentInterval 255s
attr unit s
par MultiCell.server.ipv4.igmp startupQueryInterval 31.25s
attr unit s
par MultiCell.server.ipv4.igmp startupQueryCount 2
par MultiCell.server.ipv4.igmp lastMemberQueryInterval 1s
attr unit s
par MultiCell.server.ipv4.igmp lastMemberQueryCount 2
par MultiCell.server.ipv4.igmp unsolicitedReportInterval 10s
attr unit s
par MultiCell.server.ipv4.icmp typename "\"inet.networklayer.ipv4.Icmp\""
par MultiCell.server.ipv4.icmp interfaceTableModule "\"MultiCell.server.interfaceTable\""
par MultiCell.server.ipv4.icmp routingTableModule "\"MultiCell.server.ipv4.routingTable\""
par MultiCell.server.ipv4.icmp crcMode "\"declared\""
attr enum declared,computed
attr mutable ""
par MultiCell.server.ipv4.icmp quoteLength 8B
attr mutable ""
attr unit B
par MultiCell.server.ipv4.mp typename "\"inet.common.MessageDispatcher\""
par MultiCell.server.ipv4.mp displayStringTextFormat "\"processed %p pk (%l)\""
par MultiCell.server.ipv4.mp forwardServiceRegistration true
par MultiCell.server.ipv4.mp forwardProtocolRegistration true
par MultiCell.server.ipv4.ip typename "\"inet.networklayer.ipv4.Ipv4\""
par MultiCell.server.ipv4.ip interfaceTableModule "\"MultiCell.server.interfaceTable\""
par MultiCell.server.ipv4.ip routingTableModule "\"MultiCell.server.ipv4.routingTable\""
par MultiCell.server.ipv4.ip arpModule "\"MultiCell.server.ipv4.arp\""
par MultiCell.server.ipv4.ip icmpModule "\"MultiCell.server.ipv4.icmp\""
par MultiCell.server.ipv4.ip crcMode "\"declared\""
attr enum declared,computed
par MultiCell.server.ipv4.ip timeToLive 32
par MultiCell.server.ipv4.ip multicastTimeToLive 32
par MultiCell.server.ipv4.ip fragmentTimeout 60s
attr unit s
par MultiCell.server.ipv4.ip limitedBroadcast false
par MultiCell.server.ipv4.ip directBroadcastInterfaces "\"\""
scalar MultiCell.server.ipv4.ip packetDropAddressResolutionFailed:count 0
attr interpolationmode none
attr recordingmode count
attr source packetDropReasonIsAddressResolutionFailed(packetDropped)
attr title "packet drop: address resolution failed, count"
scalar MultiCell.server.ipv4.ip packetDropAddressResolutionFailed:sum(packetBytes) 0
attr interpolationmode none
attr recordingmode sum(packetBytes)
attr source packetDropReasonIsAddressResolutionFailed(packetDropped)
attr title "packet drop: address resolution failed, sum(packetBytes)"
scalar MultiCell.server.ipv4.ip packetDropHopLimitReached:count 0
attr interpolationmode none
attr recordingmode count
attr source packetDropReasonIsHopLimitReached(packetDropped)
attr title "packet drop: hop limit reached, count"
scalar MultiCell.server.ipv4.ip packetDropHopLimitReached:sum(packetBytes) 0
attr interpolationmode none
attr recordingmode sum(packetBytes)
attr source packetDropReasonIsHopLimitReached(packetDropped)
attr title "packet drop: hop limit reached, sum(packetBytes)"
scalar MultiCell.server.ipv4.ip packetDropForwardingDisabled:count 0
attr interpolationmode none
attr recordingmode count
attr source packetDropReasonIsForwardingDisabled(packetDropped)
attr title "packet drop: forwarding disabled, count"
scalar MultiCell.server.ipv4.ip packetDropForwardingDisabled:sum(packetBytes) 0
attr interpolationmode none
attr recordingmode sum(packetBytes)
attr source packetDropReasonIsForwardingDisabled(packetDropped)
attr title "packet drop: forwarding disabled, sum(packetBytes)"
scalar MultiCell.server.ipv4.ip packetDropNoInterfaceFound:count 0
attr interpolationmode none
attr recordingmode count
attr source packetDropReasonIsNoInterfaceFound(packetDropped)
attr title "packet drop: no interface found, count"
scalar MultiCell.server.ipv4.ip packetDropNoInterfaceFound:sum(packetBytes) 0
attr interpolationmode none
attr recordingmode sum(packetBytes)
attr source packetDropReasonIsNoInterfaceFound(packetDropped)
attr title "packet drop: no interface found, sum(packetBytes)"
scalar MultiCell.server.ipv4.ip packetDropNoRouteFound:count 0
attr interpolationmode none
attr recordingmode count
attr source packetDropReasonIsNoRouteFound(packetDropped)
attr title "packet drop: no route found, count"
scalar MultiCell.server.ipv4.ip packetDropNoRouteFound:sum(packetBytes) 0
attr interpolationmode none
attr recordingmode sum(packetBytes)
attr source packetDropReasonIsNoRouteFound(packetDropped)
attr title "packet drop: no route found, sum(packetBytes)"
scalar MultiCell.server.ipv4.ip packetDropUndefined:count 0
attr interpolationmode none
attr recordingmode count
attr source packetDropReasonIsUndefined(packetDropped)
attr title "packet drop: undefined, count"
scalar MultiCell.server.ipv4.ip packetDropUndefined:sum(packetBytes) 0
attr interpolationmode none
attr recordingmode sum(packetBytes)
attr source packetDropReasonIsUndefined(packetDropped)
attr title "packet drop: undefined, sum(packetBytes)"
par MultiCell.server.ipv4.arp typename "\"inet.networklayer.arp.ipv4.Arp\""
par MultiCell.server.ipv4.arp interfaceTableModule "\"MultiCell.server.interfaceTable\""
par MultiCell.server.ipv4.arp routingTableModule "\"MultiCell.server.ipv4.routingTable\""
par MultiCell.server.ipv4.arp retryTimeout 1s
attr unit s
par MultiCell.server.ipv4.arp retryCount 3
par MultiCell.server.ipv4.arp cacheTimeout 120s
attr unit s
par MultiCell.server.ipv4.arp proxyArpInterfaces "\"\""
scalar MultiCell.server.ipv4.arp arpReplySent:count 0
attr recordingmode count
attr source arpReplySent
attr title "ARP replies sent, count"
scalar MultiCell.server.ipv4.arp arpReplySent:sum(packetBytes) 0
attr recordingmode sum(packetBytes)
attr source arpReplySent
attr title "ARP replies sent, sum(packetBytes)"
scalar MultiCell.server.ipv4.arp arpRequestSent:count 0
attr recordingmode count
attr source arpRequestSent
attr title "ARP request sent, count"
scalar MultiCell.server.ipv4.arp arpRequestSent:sum(packetBytes) 0
attr recordingmode sum(packetBytes)
attr source arpRequestSent
attr title "ARP request sent, sum(packetBytes)"
scalar MultiCell.server.ipv4.arp arpResolutionFailed:count 0
attr recordingmode count
attr title "ARP failed resolutions, count"
scalar MultiCell.server.ipv4.arp arpResolutionCompleted:count 0
attr recordingmode count
attr title "ARP completed resolutions, count"
scalar MultiCell.server.ipv4.arp arpResolutionInitiated:count 0
attr recordingmode count
attr title "ARP initiated resolutions, count"
par MultiCell.server.ipv4.lp typename "\"inet.common.MessageDispatcher\""
par MultiCell.server.ipv4.lp displayStringTextFormat "\"processed %p pk (%l)\""
par MultiCell.server.ipv4.lp forwardServiceRegistration true
par MultiCell.server.ipv4.lp forwardProtocolRegistration true
par MultiCell.server.ipv4 typename "\"inet.networklayer.ipv4.Ipv4NetworkLayer\""
par MultiCell.server.ipv4 forwarding false
par MultiCell.server.ipv4 multicastForwarding false
par MultiCell.server.ipv4 interfaceTableModule "\"MultiCell.server.interfaceTable\""
par MultiCell.server.ipv4 displayStringTextFormat "\"%i\""
par MultiCell.server.nl typename "\"inet.common.MessageDispatcher\""
par MultiCell.server.nl displayStringTextFormat "\"processed %p pk (%l)\""
par MultiCell.server.nl forwardServiceRegistration true
par MultiCell.server.nl forwardProtocolRegistration true
par MultiCell.server.udp typename "\"inet.transportlayer.udp.Udp\""
par MultiCell.server.udp interfaceTableModule "\"MultiCell.server.interfaceTable\""
par MultiCell.server.udp icmpModule "\"^.ipv4.icmp\""
par MultiCell.server.udp icmpv6Module "\"^.ipv6.icmpv6\""
par MultiCell.server.udp crcMode "\"declared\""
attr enum disabled,declared,computed
par MultiCell.server.udp defaultMulticastLoop true
scalar MultiCell.server.udp packetReceived:count 0
attr interpolationmode none
attr recordingmode count
attr source packetReceived
attr title "packets received, count"
scalar MultiCell.server.udp packetReceived:sum(packetBytes) 0
attr interpolationmode none
attr recordingmode sum(packetBytes)
attr source packetReceived
attr title "packets received, sum(packetBytes)"
scalar MultiCell.server.udp packetSent:count 0
attr interpolationmode none
attr recordingmode count
attr source packetSent
attr title "packets sent, count"
scalar MultiCell.server.udp packetSent:sum(packetBytes) 0
attr interpolationmode none
attr recordingmode sum(packetBytes)
attr source packetSent
attr title "packets sent, sum(packetBytes)"
scalar MultiCell.server.udp passedUpPk:count 0
attr interpolationmode none
attr recordingmode count
attr source packetSentToUpper
attr title "packets passed up, count"
scalar MultiCell.server.udp droppedPkWrongPort:count 0
attr interpolationmode none
attr recordingmode count
attr source packetDropReasonIsNoPortFound(packetDropped)
attr title "packets dropped (wrong port), count"
scalar MultiCell.server.udp droppedPkBadChecksum:count 0
attr interpolationmode none
attr recordingmode count
attr source packetDropReasonIsIncorrectlyReceived(packetDropped)
attr title "packets dropped (checksum error), count"
par MultiCell.server.tcp typename "\"inet.transportlayer.tcp.Tcp\""
par MultiCell.server.tcp crcMode "\"declared\""
attr enum declared,computed
par MultiCell.server.tcp advertisedWindow 7504
par MultiCell.server.tcp delayedAcksEnabled false
par MultiCell.server.tcp nagleEnabled true
par MultiCell.server.tcp limitedTransmitEnabled false
par MultiCell.server.tcp increasedIWEnabled false
par MultiCell.server.tcp sackSupport false
par MultiCell.server.tcp windowScalingSupport false
par MultiCell.server.tcp windowScalingFactor -1
par MultiCell.server.tcp timestampSupport false
par MultiCell.server.tcp mss 536
par MultiCell.server.tcp msl 120s
attr unit s
par MultiCell.server.tcp tcpAlgorithmClass "\"TcpReno\""
par MultiCell.server.tcp useDataNotification false
par MultiCell.server.tcp dupthresh 3
par MultiCell.server.tcp initialSsthresh 4294967295
par MultiCell.server.tcp stopOperationExtraTime 0s
attr unit s
par MultiCell.server.tcp stopOperationTimeout 2s
attr unit s
par MultiCell.server.tcp ecnWillingness false
par MultiCell.server.tcp dctcpGamma 0.0625
par MultiCell.server.tn typename "\"inet.common.MessageDispatcher\""
par MultiCell.server.tn displayStringTextFormat "\"processed %p pk (%l)\""
par MultiCell.server.tn forwardServiceRegistration true
par MultiCell.server.tn forwardProtocolRegistration true
par MultiCell.server.at typename "\"inet.common.MessageDispatcher\""
par MultiCell.server.at displayStringTextFormat "\"processed %p pk (%l)\""
par MultiCell.server.at forwardServiceRegistration true
par MultiCell.server.at forwardProtocolRegistration true
par MultiCell.server typename "\"inet.node.inet.StandardHost\""
par MultiCell.server hasStatus false
par MultiCell.server osgModel "\"\""
par MultiCell.server osgModelColor "\"\""
par MultiCell.server canvasImage "\"\""
par MultiCell.server canvasImageColor "\"\""
par MultiCell.server recordPcap false
par MultiCell.server numPcapRecorders 0
par MultiCell.server numLoInterfaces 1
par MultiCell.server numWlanInterfaces 0
par MultiCell.server numEthInterfaces 0
par MultiCell.server numPppInterfaces 0
par MultiCell.server numTunInterfaces 0
par MultiCell.server numVirtInterfaces 0
par MultiCell.server fcsMode "\"declared\""
attr enum declared,computed
par MultiCell.server hasIpv4 true
par MultiCell.server hasIpv6 false
par MultiCell.server hasGn false
par MultiCell.server forwarding false
par MultiCell.server multicastForwarding false
par MultiCell.server hasUdp true
par MultiCell.server hasTcp true
par MultiCell.server hasSctp false
par MultiCell.server numApps 0
par MultiCell.pgw.pppg$i[0].channel typename "\"ned.IdealChannel\""
par MultiCell.pgw.ppp[0].phys$o.channel typename "\"ned.IdealChannel\""
par MultiCell.pgw.pppg$i[1].channel typename "\"ned.IdealChannel\""
par MultiCell.pgw.ppp[1].phys$o.channel typename "\"ned.IdealChannel\""
par MultiCell.pgw.interfaceTable typename "\"inet.networklayer.common.InterfaceTable\""
par MultiCell.pgw.interfaceTable displayAddresses false
par MultiCell.pgw.cb typename "\"inet.common.MessageDispatcher\""
par MultiCell.pgw.cb displayStringTextFormat "\"processed %p pk (%l)\""
par MultiCell.pgw.cb forwardServiceRegistration true
par MultiCell.pgw.cb forwardProtocolRegistration true
par MultiCell.pgw.bl typename "\"inet.common.MessageDispatcher\""
par MultiCell.pgw.bl displayStringTextFormat "\"processed %p pk (%l)\""
par MultiCell.pgw.bl forwardServiceRegistration true
par MultiCell.pgw.bl forwardProtocolRegistration true
par MultiCell.pgw.li typename "\"inet.common.MessageDispatcher\""
par MultiCell.pgw.li displayStringTextFormat "\"processed %p pk (%l)\""
par MultiCell.pgw.li forwardServiceRegistration true
par MultiCell.pgw.li forwardProtocolRegistration true
par MultiCell.pgw.lo[0].upperLayerIn.channel typename "\"ned.IdealChannel\""
par MultiCell.pgw.lo[0].lo.upperLayerOut.channel typename "\"ned.IdealChannel\""
par MultiCell.pgw.lo[0].lo typename "\"inet.linklayer.loopback.Loopback\""
par MultiCell.pgw.lo[0].lo interfaceTableModule "\"MultiCell.pgw.interfaceTable\""
par MultiCell.pgw.lo[0].lo mtu 4470B
attr unit B
scalar MultiCell.pgw.lo[0].lo rcvdPkFromHl:count 0
attr interpolationmode none
attr recordingmode count
attr source packetReceivedFromUpper
attr title "packets received from higher layer, count"
scalar MultiCell.pgw.lo[0].lo rcvdPkFromHl:sum(packetBytes) 0
attr interpolationmode none
attr recordingmode sum(packetBytes)
attr source packetReceivedFromUpper
attr title "packets received from higher layer, sum(packetBytes)"
scalar MultiCell.pgw.lo[0].lo passedUpPk:count 0
attr interpolationmode none
attr recordingmode count
attr source packetSentToUpper
attr title "packets passed to higher layer, count"
scalar MultiCell.pgw.lo[0].lo passedUpPk:sum(packetBytes) 0
attr interpolationmode none
attr recordingmode sum(packetBytes)
attr source packetSentToUpper
attr title "packets passed to higher layer, sum(packetBytes)"
par MultiCell.pgw.lo[0] typename "\"inet.linklayer.loopback.LoopbackInterface\""
par MultiCell.pgw.lo[0] displayStringTextFormat "\"%a (%i)\\n%m\""
par MultiCell.pgw.lo[0] recordPcap false
par MultiCell.pgw.lo[0] numPcapRecorders 0
par MultiCell.pgw.lo[0] interfaceTableModule "\"MultiCell.pgw.interfaceTable\""
scalar MultiCell.pgw.lo[0] packetDropInterfaceDown:count 0
attr interpolationmode none
attr recordingmode count
attr source packetDropReasonIsInterfaceDown(packetDropped)
attr title "packet drops: interface down, count"
scalar MultiCell.pgw.lo[0] packetDropInterfaceDown:sum(packetBytes) 0
attr interpolationmode none
attr recordingmode sum(packetBytes)
attr source packetDropReasonIsInterfaceDown(packetDropped)
attr title "packet drops: interface down, sum(packetBytes)"
scalar MultiCell.pgw.lo[0] packetDropNoCarrier:count 0
attr interpolationmode none
attr recordingmode count
attr source packetDropReasonIsNoCarrier(packetDropped)
attr title "packet drops: no carrier, count"
scalar MultiCell.pgw.lo[0] packetDropNoCarrier:sum(packetBytes) 0
attr interpolationmode none
attr recordingmode sum(packetBytes)
attr source packetDropReasonIsNoCarrier(packetDropped)
attr title "packet drops: no carrier, sum(packetBytes)"
par MultiCell.pgw.ppp[0].phys$i.channel typename "\"ned.IdealChannel\""
par MultiCell.pgw.ppp[0].ppp.phys$o.channel typename "\"ned.IdealChannel\""
par MultiCell.pgw.ppp[0].ppp.upperLayerOut.channel typename "\"ned.IdealChannel\""
par MultiCell.pgw.ppp[0].upperLayerIn.channel typename "\"ned.IdealChannel\""
par MultiCell.pgw.ppp[0].queue typename "\"inet.queueing.queue.DropTailQueue\""
par MultiCell.pgw.ppp[0].queue displayStringTextFormat "\"contains %p pk (%l) pushed %u\\npulled %o removed %r dropped %d\""
par MultiCell.pgw.ppp[0].queue packetCapacity 10000
par MultiCell.pgw.ppp[0].queue dataCapacity -1b
attr unit b
par MultiCell.pgw.ppp[0].queue dropperClass "\"inet::queueing::PacketAtCollectionEndDropper\""
par MultiCell.pgw.ppp[0].queue comparatorClass "\"\""
par MultiCell.pgw.ppp[0].queue bufferModule "\"\""
scalar MultiCell.pgw.ppp[0].queue queueLength:last 0
attr autoWarmupFilter false
attr interpolationmode sample-hold
attr recordingmode last
attr source "warmup(atomic(constant0(packetPushEnded) + count(packetPushStarted) - count(packetPulled) - count(packetRemoved) - count(packetDropped)))"
attr title "queue length, last"
attr unit pk
scalar MultiCell.pgw.ppp[0].queue queueLength:max 0
attr autoWarmupFilter false
attr interpolationmode sample-hold
attr recordingmode max
attr source "warmup(atomic(constant0(packetPushEnded) + count(packetPushStarted) - count(packetPulled) - count(packetRemoved) - count(packetDropped)))"
attr title "queue length, max"
attr unit pk
scalar MultiCell.pgw.ppp[0].queue queueLength:timeavg 0
attr autoWarmupFilter false
attr interpolationmode sample-hold
attr recordingmode timeavg
attr source "warmup(atomic(constant0(packetPushEnded) + count(packetPushStarted) - count(packetPulled) - count(packetRemoved) - count(packetDropped)))"
attr title "queue length, timeavg"
attr unit pk
scalar MultiCell.pgw.ppp[0].queue queueBitLength:last 0
attr autoWarmupFilter false
attr interpolationmode sample-hold
attr recordingmode last
attr source "warmup(atomic(constant0(packetPushEnded) + sum(packetLength(packetPushStarted)) - sum(packetLength(packetPulled)) - sum(packetLength(packetRemoved)) - sum(packetLength(packetDropped))))"
attr title "queue bit length, last"
attr unit b
scalar MultiCell.pgw.ppp[0].queue queueBitLength:max 0
attr autoWarmupFilter false
attr interpolationmode sample-hold
attr recordingmode max
attr source "warmup(atomic(constant0(packetPushEnded) + sum(packetLength(packetPushStarted)) - sum(packetLength(packetPulled)) - sum(packetLength(packetRemoved)) - sum(packetLength(packetDropped))))"
attr title "queue bit length, max"
attr unit b
scalar MultiCell.pgw.ppp[0].queue queueBitLength:timeavg 0
attr autoWarmupFilter false
attr interpolationmode sample-hold
attr recordingmode timeavg
attr source "warmup(atomic(constant0(packetPushEnded) + sum(packetLength(packetPushStarted)) - sum(packetLength(packetPulled)) - sum(packetLength(packetRemoved)) - sum(packetLength(packetDropped))))"
attr title "queue bit length, timeavg"
attr unit b
statistic MultiCell.pgw.ppp[0].queue queueingTime:histogram
field count 0
field mean nan
field stddev nan
field min nan
field max nan
field sum 0
field sqrsum 0
attr interpolationmode none
attr recordingmode histogram
attr source queueingTime(packetPulled)
attr title "queueing times"
attr unit s
bin	-inf	0
bin	0	0
bin	1	0
scalar MultiCell.pgw.ppp[0].queue outgoingPackets:count 0
attr recordingmode count
attr source packetPulled
attr title "outgoing packets, count"
attr unit pk
scalar MultiCell.pgw.ppp[0].queue outgoingPacketLengths:sum 0
attr interpolationmode none
attr recordingmode sum
attr source packetLength(packetPulled)
attr title "outgoing packet lengths, sum"
attr unit b
statistic MultiCell.pgw.ppp[0].queue outgoingPacketLengths:histogram
field count 0
field mean nan
field stddev nan
field min nan
field max nan
field sum 0
field sqrsum 0
attr interpolationmode none
attr recordingmode histogram
attr source packetLength(packetPulled)
attr title "outgoing packet lengths"
attr unit b
bin	-inf	0
bin	0	0
bin	1	0
statistic MultiCell.pgw.ppp[0].queue flowQueueingTime:histogram
field count 0
field mean nan
field stddev nan
field min nan
field max nan
field sum 0
field sqrsum 0
attr interpolationmode none
attr recordingmode histogram
attr source queueingTime(demuxFlow(packetPulled))
attr title "flow queueing times"
attr unit s
bin	-inf	0
bin	0	0
bin	1	0
scalar MultiCell.pgw.ppp[0].queue incomingPackets:count 0
attr recordingmode count
attr source packetPushStarted
attr title "incoming packets, count"
attr unit pk
scalar MultiCell.pgw.ppp[0].queue incomingPacketLengths:sum 0
attr interpolationmode none
attr recordingmode sum
attr source packetLength(packetPushStarted)
attr title "incoming packet lengths, sum"
attr unit b
statistic MultiCell.pgw.ppp[0].queue incomingPacketLengths:histogram
field count 0
field mean nan
field stddev nan
field min nan
field max nan
field sum 0
field sqrsum 0
attr interpolationmode none
attr recordingmode histogram
attr source packetLength(packetPushStarted)
attr title "incoming packet lengths"
attr unit b
bin	-inf	0
bin	0	0
bin	1	0
scalar MultiCell.pgw.ppp[0].queue droppedPacketsQueueOverflow:count 0
attr interpolationmode none
attr recordingmode count
attr source packetDropReasonIsQueueOverflow(packetDropped)
attr title "dropped packets: queue overflow, count"
attr unit pk
scalar MultiCell.pgw.ppp[0].queue droppedPacketLengthsQueueOverflow:sum 0
attr interpolationmode none
attr recordingmode sum
attr source packetLength(packetDropReasonIsQueueOverflow(packetDropped))
attr title "dropped packet lengths: queue overflow, sum"
attr unit b
par MultiCell.pgw.ppp[0].ppp typename "\"inet.linklayer.ppp.Ppp\""
par MultiCell.pgw.ppp[0].ppp interfaceTableModule "\"MultiCell.pgw.interfaceTable\""
par MultiCell.pgw.ppp[0].ppp displayStringTextFormat "\"rate: %b\\nsent: %s, rcvd: %r\\nqueue: %q, drop: %d\""
par MultiCell.pgw.ppp[0].ppp sendRawBytes false
par MultiCell.pgw.ppp[0].ppp mtu 4470B
attr unit B
par MultiCell.pgw.ppp[0].ppp stopOperationExtraTime -1s
attr unit s
par MultiCell.pgw.ppp[0].ppp stopOperationTimeout 2s
attr unit s
scalar MultiCell.pgw.ppp[0].ppp txPk:count 0
attr interpolationmode none
attr recordingmode count
attr source packetSentToLower
attr title "packets transmitted, count"
scalar MultiCell.pgw.ppp[0].ppp txPk:sum(packetBytes) 0
attr interpolationmode none
attr recordingmode sum(packetBytes)
attr source packetSentToLower
attr title "packets transmitted, sum(packetBytes)"
scalar MultiCell.pgw.ppp[0].ppp rcvdPkFromHl:count 0
attr interpolationmode none
attr recordingmode count
attr source packetReceivedFromUpper
attr title "packets received from higher layer, count"
scalar MultiCell.pgw.ppp[0].ppp rcvdPkFromHl:sum(packetBytes) 0
attr interpolationmode none
attr recordingmode sum(packetBytes)
attr source packetReceivedFromUpper
attr title "packets received from higher layer, sum(packetBytes)"
scalar MultiCell.pgw.ppp[0].ppp passedUpPk:count 0
attr interpolationmode none
attr recordingmode count
attr source packetSentToUpper
attr title "packets passed to higher layer, count"
scalar MultiCell.pgw.ppp[0].ppp passedUpPk:sum(packetBytes) 0
attr interpolationmode none
attr recordingmode sum(packetBytes)
attr source packetSentToUpper
attr title "packets passed to higher layer, sum(packetBytes)"
scalar MultiCell.pgw.ppp[0].ppp packetDropIncorrectlyReceived:count 0
attr interpolationmode none
attr recordingmode count
attr source packetDropReasonIsIncorrectlyReceived(packetDropped)
attr title "packet drop: incorrectly received, count"
scalar MultiCell.pgw.ppp[0].ppp packetDropIncorrectlyReceived:sum(packetBytes) 0
attr interpolationmode none
attr recordingmode sum(packetBytes)
attr source packetDropReasonIsIncorrectlyReceived(packetDropped)
attr title "packet drop: incorrectly received, sum(packetBytes)"
scalar MultiCell.pgw.ppp[0].ppp packetDropInterfaceDown:count 0
attr interpolationmode none
attr recordingmode count
attr source packetDropReasonIsInterfaceDown(packetDropped)
attr title "packet drop: interface down, count"
scalar MultiCell.pgw.ppp[0].ppp packetDropInterfaceDown:sum(packetBytes) 0
attr interpolationmode none
attr recordingmode sum(packetBytes)
attr source packetDropReasonIsInterfaceDown(packetDropped)
attr title "packet drop: interface down, sum(packetBytes)"
scalar MultiCell.pgw.ppp[0].ppp rxPkOk:count 0
attr interpolationmode none
attr recordingmode count
attr source rxPkOk
attr title "packets received OK, count"
scalar MultiCell.pgw.ppp[0].ppp rxPkOk:sum(packetBytes) 0
attr interpolationmode none
attr recordingmode sum(packetBytes)
attr source rxPkOk
attr title "packets received OK, sum(packetBytes)"
scalar MultiCell.pgw.ppp[0].ppp transmissionState:timeavg 0
attr interpolationmode sample-hold
attr recordingmode timeavg
attr source transmissionStateChanged
attr title "tx state, timeavg"
par MultiCell.pgw.ppp[0] typename "\"inet.linklayer.ppp.PppInterface\""
par MultiCell.pgw.ppp[0] displayStringTextFormat "\"%a (%i)\\n%m\""
par MultiCell.pgw.ppp[0] recordPcap false
par MultiCell.pgw.ppp[0] numPcapRecorders 0
par MultiCell.pgw.ppp[0] interfaceTableModule "\"MultiCell.pgw.interfaceTable\""
scalar MultiCell.pgw.ppp[0] packetDropInterfaceDown:count 0
attr interpolationmode none
attr recordingmode count
attr source packetDropReasonIsInterfaceDown(packetDropped)
attr title "packet drops: interface down, count"
scalar MultiCell.pgw.ppp[0] packetDropInterfaceDown:sum(packetBytes) 0
attr interpolationmode none
attr recordingmode sum(packetBytes)
attr source packetDropReasonIsInterfaceDown(packetDropped)
attr title "packet drops: interface down, sum(packetBytes)"
scalar MultiCell.pgw.ppp[0] packetDropNoCarrier:count 0
attr interpolationmode none
attr recordingmode count
attr source packetDropReasonIsNoCarrier(packetDropped)
attr title "packet drops: no carrier, count"
scalar MultiCell.pgw.ppp[0] packetDropNoCarrier:sum(packetBytes) 0
attr interpolationmode none
attr recordingmode sum(packetBytes)
attr source packetDropReasonIsNoCarrier(packetDropped)
attr title "packet drops: no carrier, sum(packetBytes)"
par MultiCell.pgw.ppp[1].phys$i.channel typename "\"ned.IdealChannel\""
par MultiCell.pgw.ppp[1].ppp.phys$o.channel typename "\"ned.IdealChannel\""
par MultiCell.pgw.ppp[1].ppp.upperLayerOut.channel typename "\"ned.IdealChannel\""
par MultiCell.pgw.ppp[1].upperLayerIn.channel typename "\"ned.IdealChannel\""
par MultiCell.pgw.ppp[1].queue typename "\"inet.queueing.queue.DropTailQueue\""
par MultiCell.pgw.ppp[1].queue displayStringTextFormat "\"contains %p pk (%l) pushed %u\\npulled %o removed %r dropped %d\""
par MultiCell.pgw.ppp[1].queue packetCapacity 10000
par MultiCell.pgw.ppp[1].queue dataCapacity -1b
attr unit b
par MultiCell.pgw.ppp[1].queue dropperClass "\"inet::queueing::PacketAtCollectionEndDropper\""
par MultiCell.pgw.ppp[1].queue comparatorClass "\"\""
par MultiCell.pgw.ppp[1].queue bufferModule "\"\""
scalar MultiCell.pgw.ppp[1].queue queueLength:last 0
attr autoWarmupFilter false
attr interpolationmode sample-hold
attr recordingmode last
attr source "warmup(atomic(constant0(packetPushEnded) + count(packetPushStarted) - count(packetPulled) - count(packetRemoved) - count(packetDropped)))"
attr title "queue length, last"
attr unit pk
scalar MultiCell.pgw.ppp[1].queue queueLength:max 0
attr autoWarmupFilter false
attr interpolationmode sample-hold
attr recordingmode max
attr source "warmup(atomic(constant0(packetPushEnded) + count(packetPushStarted) - count(packetPulled) - count(packetRemoved) - count(packetDropped)))"
attr title "queue length, max"
attr unit pk
scalar MultiCell.pgw.ppp[1].queue queueLength:timeavg 0
attr autoWarmupFilter false
attr interpolationmode sample-hold
attr recordingmode timeavg
attr source "warmup(atomic(constant0(packetPushEnded) + count(packetPushStarted) - count(packetPulled) - count(packetRemoved) - count(packetDropped)))"
attr title "queue length, timeavg"
attr unit pk
scalar MultiCell.pgw.ppp[1].queue queueBitLength:last 0
attr autoWarmupFilter false
attr interpolationmode sample-hold
attr recordingmode last
attr source "warmup(atomic(constant0(packetPushEnded) + sum(packetLength(packetPushStarted)) - sum(packetLength(packetPulled)) - sum(packetLength(packetRemoved)) - sum(packetLength(packetDropped))))"
attr title "queue bit length, last"
attr unit b
scalar MultiCell.pgw.ppp[1].queue queueBitLength:max 0
attr autoWarmupFilter false
attr interpolationmode sample-hold
attr recordingmode max
attr source "warmup(atomic(constant0(packetPushEnded) + sum(packetLength(packetPushStarted)) - sum(packetLength(packetPulled)) - sum(packetLength(packetRemoved)) - sum(packetLength(packetDropped))))"
attr title "queue bit length, max"
attr unit b
scalar MultiCell.pgw.ppp[1].queue queueBitLength:timeavg 0
attr autoWarmupFilter false
attr interpolationmode sample-hold
attr recordingmode timeavg
attr source "warmup(atomic(constant0(packetPushEnded) + sum(packetLength(packetPushStarted)) - sum(packetLength(packetPulled)) - sum(packetLength(packetRemoved)) - sum(packetLength(packetDropped))))"
attr title "queue bit length, timeavg"
attr unit b
statistic MultiCell.pgw.ppp[1].queue queueingTime:histogram
field count 0
field mean nan
field stddev nan
field min nan
field max nan
field sum 0
field sqrsum 0
attr interpolationmode none
attr recordingmode histogram
attr source queueingTime(packetPulled)
attr title "queueing times"
attr unit s
bin	-inf	0
bin	0	0
bin	1	0
scalar MultiCell.pgw.ppp[1].queue outgoingPackets:count 0
attr recordingmode count
attr source packetPulled
attr title "outgoing packets, count"
attr unit pk
scalar MultiCell.pgw.ppp[1].queue outgoingPacketLengths:sum 0
attr interpolationmode none
attr recordingmode sum
attr source packetLength(packetPulled)
attr title "outgoing packet lengths, sum"
attr unit b
statistic MultiCell.pgw.ppp[1].queue outgoingPacketLengths:histogram
field count 0
field mean nan
field stddev nan
field min nan
field max nan
field sum 0
field sqrsum 0
attr interpolationmode none
attr recordingmode histogram
attr source packetLength(packetPulled)
attr title "outgoing packet lengths"
attr unit b
bin	-inf	0
bin	0	0
bin	1	0
statistic MultiCell.pgw.ppp[1].queue flowQueueingTime:histogram
field count 0
field mean nan
field stddev nan
field min nan
field max nan
field sum 0
field sqrsum 0
attr interpolationmode none
attr recordingmode histogram
attr source queueingTime(demuxFlow(packetPulled))
attr title "flow queueing times"
attr unit s
bin	-inf	0
bin	0	0
bin	1	0
scalar MultiCell.pgw.ppp[1].queue incomingPackets:count 0
attr recordingmode count
attr source packetPushStarted
attr title "incoming packets, count"
attr unit pk
scalar MultiCell.pgw.ppp[1].queue incomingPacketLengths:sum 0
attr interpolationmode none
attr recordingmode sum
attr source packetLength(packetPushStarted)
attr title "incoming packet lengths, sum"
attr unit b
statistic MultiCell.pgw.ppp[1].queue incomingPacketLengths:histogram
field count 0
field mean nan
field stddev nan
field min nan
field max nan
field sum 0
field sqrsum 0
attr interpolationmode none
attr recordingmode histogram
attr source packetLength(packetPushStarted)
attr title "incoming packet lengths"
attr unit b
bin	-inf	0
bin	0	0
bin	1	0
scalar MultiCell.pgw.ppp[1].queue droppedPacketsQueueOverflow:count 0
attr interpolationmode none
attr recordingmode count
attr source packetDropReasonIsQueueOverflow(packetDropped)
attr title "dropped packets: queue overflow, count"
attr unit pk
scalar MultiCell.pgw.ppp[1].queue droppedPacketLengthsQueueOverflow:sum 0
attr interpolationmode none
attr recordingmode sum
attr source packetLength(packetDropReasonIsQueueOverflow(packetDropped))
attr title "dropped packet lengths: queue overflow, sum"
attr unit b
par MultiCell.pgw.ppp[1].ppp typename "\"inet.linklayer.ppp.Ppp\""
par MultiCell.pgw.ppp[1].ppp interfaceTableModule "\"MultiCell.pgw.interfaceTable\""
par MultiCell.pgw.ppp[1].ppp displayStringTextFormat "\"rate: %b\\nsent: %s, rcvd: %r\\nqueue: %q, drop: %d\""
par MultiCell.pgw.ppp[1].ppp sendRawBytes false
par MultiCell.pgw.ppp[1].ppp mtu 4470B
attr unit B
par MultiCell.pgw.ppp[1].ppp stopOperationExtraTime -1s
attr unit s
par MultiCell.pgw.ppp[1].ppp stopOperationTimeout 2s
attr unit s
scalar MultiCell.pgw.ppp[1].ppp txPk:count 0
attr interpolationmode none
attr recordingmode count
attr source packetSentToLower
attr title "packets transmitted, count"
scalar MultiCell.pgw.ppp[1].ppp txPk:sum(packetBytes) 0
attr interpolationmode none
attr recordingmode sum(packetBytes)
attr source packetSentToLower
attr title "packets transmitted, sum(packetBytes)"
scalar MultiCell.pgw.ppp[1].ppp rcvdPkFromHl:count 0
attr interpolationmode none
attr recordingmode count
attr source packetReceivedFromUpper
attr title "packets received from higher layer, count"
scalar MultiCell.pgw.ppp[1].ppp rcvdPkFromHl:sum(packetBytes) 0
attr interpolationmode none
attr recordingmode sum(packetBytes)
attr source packetReceivedFromUpper
attr title "packets received from higher layer, sum(packetBytes)"
scalar MultiCell.pgw.ppp[1].ppp passedUpPk:count 0
attr interpolationmode none
attr recordingmode count
attr source packetSentToUpper
attr title "packets passed to higher layer, count"
scalar MultiCell.pgw.ppp[1].ppp passedUpPk:sum(packetBytes) 0
attr interpolationmode none
attr recordingmode sum(packetBytes)
attr source packetSentToUpper
attr title "packets passed to higher layer, sum(packetBytes)"
scalar MultiCell.pgw.ppp[1].ppp packetDropIncorrectlyReceived:count 0
attr interpolationmode none
attr recordingmode count
attr source packetDropReasonIsIncorrectlyReceived(packetDropped)
attr title "packet drop: incorrectly received, count"
scalar MultiCell.pgw.ppp[1].ppp packetDropIncorrectlyReceived:sum(packetBytes) 0
attr interpolationmode none
attr recordingmode sum(packetBytes)
attr source packetDropReasonIsIncorrectlyReceived(packetDropped)
attr title "packet drop: incorrectly received, sum(packetBytes)"
scalar MultiCell.pgw.ppp[1].ppp packetDropInterfaceDown:count 0
attr interpolationmode none
attr recordingmode count
attr source packetDropReasonIsInterfaceDown(packetDropped)
attr title "packet drop: interface down, count"
scalar MultiCell.pgw.ppp[1].ppp packetDropInterfaceDown:sum(packetBytes) 0
attr interpolationmode none
attr recordingmode sum(packetBytes)
attr source packetDropReasonIsInterfaceDown(packetDropped)
attr title "packet drop: interface down, sum(packetBytes)"
scalar MultiCell.pgw.ppp[1].ppp rxPkOk:count 0
attr interpolationmode none
attr recordingmode count
attr source rxPkOk
attr title "packets received OK, count"
scalar MultiCell.pgw.ppp[1].ppp rxPkOk:sum(packetBytes) 0
attr interpolationmode none
attr recordingmode sum(packetBytes)
attr source rxPkOk
attr title "packets received OK, sum(packetBytes)"
scalar MultiCell.pgw.ppp[1].ppp transmissionState:timeavg 0
attr interpolationmode sample-hold
attr recordingmode timeavg
attr source transmissionStateChanged
attr title "tx state, timeavg"
par MultiCell.pgw.ppp[1] typename "\"inet.linklayer.ppp.PppInterface\""
par MultiCell.pgw.ppp[1] displayStringTextFormat "\"%a (%i)\\n%m\""
par MultiCell.pgw.ppp[1] recordPcap false
par MultiCell.pgw.ppp[1] numPcapRecorders 0
par MultiCell.pgw.ppp[1] interfaceTableModule "\"MultiCell.pgw.interfaceTable\""
scalar MultiCell.pgw.ppp[1] packetDropInterfaceDown:count 0
attr interpolationmode none
attr recordingmode count
attr source packetDropReasonIsInterfaceDown(packetDropped)
attr title "packet drops: interface down, count"
scalar MultiCell.pgw.ppp[1] packetDropInterfaceDown:sum(packetBytes) 0
attr interpolationmode none
attr recordingmode sum(packetBytes)
attr source packetDropReasonIsInterfaceDown(packetDropped)
attr title "packet drops: interface down, sum(packetBytes)"
scalar MultiCell.pgw.ppp[1] packetDropNoCarrier:count 0
attr interpolationmode none
attr recordingmode count
attr source packetDropReasonIsNoCarrier(packetDropped)
attr title "packet drops: no carrier, count"
scalar MultiCell.pgw.ppp[1] packetDropNoCarrier:sum(packetBytes) 0
attr interpolationmode none
attr recordingmode sum(packetBytes)
attr source packetDropReasonIsNoCarrier(packetDropped)
attr title "packet drops: no carrier, sum(packetBytes)"
par MultiCell.pgw.ipv4.transportIn.channel typename "\"ned.IdealChannel\""
par MultiCell.pgw.ipv4.up.out[0].channel typename "\"ned.IdealChannel\""
par MultiCell.pgw.ipv4.lp.out[2].channel typename "\"ned.IdealChannel\""
par MultiCell.pgw.ipv4.ifIn.channel typename "\"ned.IdealChannel\""
par MultiCell.pgw.ipv4.configurator typename "\"inet.networklayer.configurator.ipv4.Ipv4NodeConfigurator\""
par MultiCell.pgw.ipv4.configurator interfaceTableModule "\"MultiCell.pgw.interfaceTable\""
par MultiCell.pgw.ipv4.configurator routingTableModule "\"MultiCell.pgw.ipv4.routingTable\""
par MultiCell.pgw.ipv4.configurator networkConfiguratorModule "\"configurator\""
par MultiCell.pgw.ipv4.configurator configureRoutingTable true
par MultiCell.pgw.ipv4.routingTable typename "\"inet.networklayer.ipv4.Ipv4RoutingTable\""
par MultiCell.pgw.ipv4.routingTable interfaceTableModule "\"MultiCell.pgw.interfaceTable\""
par MultiCell.pgw.ipv4.routingTable routerId "\"auto\""
par MultiCell.pgw.ipv4.routingTable netmaskRoutes "\"*\""
par MultiCell.pgw.ipv4.routingTable forwarding true
par MultiCell.pgw.ipv4.routingTable multicastForwarding false
par MultiCell.pgw.ipv4.routingTable useAdminDist false
par MultiCell.pgw.ipv4.routingTable routingFile "\"\""
par MultiCell.pgw.ipv4.natTable typename "\"inet.networklayer.ipv4.Ipv4NatTable\""
par MultiCell.pgw.ipv4.natTable networkProtocolModule "\"^.ip\""
par MultiCell.pgw.ipv4.natTable config "<config/> at content:1"
par MultiCell.pgw.ipv4.up typename "\"inet.common.MessageDispatcher\""
par MultiCell.pgw.ipv4.up displayStringTextFormat "\"processed %p pk (%l)\""
par MultiCell.pgw.ipv4.up forwardServiceRegistration true
par MultiCell.pgw.ipv4.up forwardProtocolRegistration true
par MultiCell.pgw.ipv4.igmp typename "\"inet.networklayer.ipv4.Igmpv2\""
par MultiCell.pgw.ipv4.igmp interfaceTableModule "\"MultiCell.pgw.interfaceTable\""
par MultiCell.pgw.ipv4.igmp routingTableModule "\"MultiCell.pgw.ipv4.routingTable\""
par MultiCell.pgw.ipv4.igmp crcMode "\"declared\""
attr enum declared,computed
par MultiCell.pgw.ipv4.igmp enabled true
par MultiCell.pgw.ipv4.igmp robustnessVariable 2
par MultiCell.pgw.ipv4.igmp queryInterval 125s
attr unit s
par MultiCell.pgw.ipv4.igmp queryResponseInterval 10s
attr unit s
par MultiCell.pgw.ipv4.igmp groupMembershipInterval 260s
attr unit s
par MultiCell.pgw.ipv4.igmp otherQuerierPresentInterval 255s
attr unit s
par MultiCell.pgw.ipv4.igmp startupQueryInterval 31.25s
attr unit s
par MultiCell.pgw.ipv4.igmp startupQueryCount 2
par MultiCell.pgw.ipv4.igmp lastMemberQueryInterval 1s
attr unit s
par MultiCell.pgw.ipv4.igmp lastMemberQueryCount 2
par MultiCell.pgw.ipv4.igmp unsolicitedReportInterval 10s
attr unit s
par MultiCell.pgw.ipv4.icmp typename "\"inet.networklayer.ipv4.Icmp\""
par MultiCell.pgw.ipv4.icmp interfaceTableModule "\"MultiCell.pgw.interfaceTable\""
par MultiCell.pgw.ipv4.icmp routingTableModule "\"MultiCell.pgw.ipv4.routingTable\""
par MultiCell.pgw.ipv4.icmp crcMode "\"declared\""
attr enum declared,computed
attr mutable ""
par MultiCell.pgw.ipv4.icmp quoteLength 8B
attr mutable ""
attr unit B
par MultiCell.pgw.ipv4.mp typename "\"inet.common.MessageDispatcher\""
par MultiCell.pgw.ipv4.mp displayStringTextFormat "\"processed %p pk (%l)\""
par MultiCell.pgw.ipv4.mp forwardServiceRegistration true
par MultiCell.pgw.ipv4.mp forwardProtocolRegistration true
par MultiCell.pgw.ipv4.ip typename "\"inet.networklayer.ipv4.Ipv4\""
par MultiCell.pgw.ipv4.ip interfaceTableModule "\"MultiCell.pgw.interfaceTable\""
par MultiCell.pgw.ipv4.ip routingTableModule "\"MultiCell.pgw.ipv4.routingTable\""
par MultiCell.pgw.ipv4.ip arpModule "\"MultiCell.pgw.ipv4.arp\""
par MultiCell.pgw.ipv4.ip icmpModule "\"MultiCell.pgw.ipv4.icmp\""
par MultiCell.pgw.ipv4.ip crcMode "\"declared\""
attr enum declared,computed
par MultiCell.pgw.ipv4.ip timeToLive 32
par MultiCell.pgw.ipv4.ip multicastTimeToLive 32
par MultiCell.pgw.ipv4.ip fragmentTimeout 60s
attr unit s
par MultiCell.pgw.ipv4.ip limitedBroadcast false
par MultiCell.pgw.ipv4.ip directBroadcastInterfaces "\"\""
scalar MultiCell.pgw.ipv4.ip packetDropAddressResolutionFailed:count 0
attr interpolationmode none
attr recordingmode count
attr source packetDropReasonIsAddressResolutionFailed(packetDropped)
attr title "packet drop: address resolution failed, count"
scalar MultiCell.pgw.ipv4.ip packetDropAddressResolutionFailed:sum(packetBytes) 0
attr interpolationmode none
attr recordingmode sum(packetBytes)
attr source packetDropReasonIsAddressResolutionFailed(packetDropped)
attr title "packet drop: address resolution failed, sum(packetBytes)"
scalar MultiCell.pgw.ipv4.ip packetDropHopLimitReached:count 0
attr interpolationmode none
attr recordingmode count
attr source packetDropReasonIsHopLimitReached(packetDropped)
attr title "packet drop: hop limit reached, count"
scalar MultiCell.pgw.ipv4.ip packetDropHopLimitReached:sum(packetBytes) 0
attr interpolationmode none
attr recordingmode sum(packetBytes)
attr source packetDropReasonIsHopLimitReached(packetDropped)
attr title "packet drop: hop limit reached, sum(packetBytes)"
scalar MultiCell.pgw.ipv4.ip packetDropForwardingDisabled:count 0
attr interpolationmode none
attr recordingmode count
attr source packetDropReasonIsForwardingDisabled(packetDropped)
attr title "packet drop: forwarding disabled, count"
scalar MultiCell.pgw.ipv4.ip packetDropForwardingDisabled:sum(packetBytes) 0
attr interpolationmode none
attr recordingmode sum(packetBytes)
attr source packetDropReasonIsForwardingDisabled(packetDropped)
attr title "packet drop: forwarding disabled, sum(packetBytes)"
scalar MultiCell.pgw.ipv4.ip packetDropNoInterfaceFound:count 0
attr interpolationmode none
attr recordingmode count
attr source packetDropReasonIsNoInterfaceFound(packetDropped)
attr title "packet drop: no interface found, count"
scalar MultiCell.pgw.ipv4.ip packetDropNoInterfaceFound:sum(packetBytes) 0
attr interpolationmode none
attr recordingmode sum(packetBytes)
attr source packetDropReasonIsNoInterfaceFound(packetDropped)
attr title "packet drop: no interface found, sum(packetBytes)"
scalar MultiCell.pgw.ipv4.ip packetDropNoRouteFound:count 0
attr interpolationmode none
attr recordingmode count
attr source packetDropReasonIsNoRouteFound(packetDropped)
attr title "packet drop: no route found, count"
scalar MultiCell.pgw.ipv4.ip packetDropNoRouteFound:sum(packetBytes) 0
attr interpolationmode none
attr recordingmode sum(packetBytes)
attr source packetDropReasonIsNoRouteFound(packetDropped)
attr title "packet drop: no route found, sum(packetBytes)"
scalar MultiCell.pgw.ipv4.ip packetDropUndefined:count 0
attr interpolationmode none
attr recordingmode count
attr source packetDropReasonIsUndefined(packetDropped)
attr title "packet drop: undefined, count"
scalar MultiCell.pgw.ipv4.ip packetDropUndefined:sum(packetBytes) 0
attr interpolationmode none
attr recordingmode sum(packetBytes)
attr source packetDropReasonIsUndefined(packetDropped)
attr title "packet drop: undefined, sum(packetBytes)"
par MultiCell.pgw.ipv4.arp typename "\"inet.networklayer.arp.ipv4.Arp\""
par MultiCell.pgw.ipv4.arp interfaceTableModule "\"MultiCell.pgw.interfaceTable\""
par MultiCell.pgw.ipv4.arp routingTableModule "\"MultiCell.pgw.ipv4.routingTable\""
par MultiCell.pgw.ipv4.arp retryTimeout 1s
attr unit s
par MultiCell.pgw.ipv4.arp retryCount 3
par MultiCell.pgw.ipv4.arp cacheTimeout 120s
attr unit s
par MultiCell.pgw.ipv4.arp proxyArpInterfaces "\"*\""
scalar MultiCell.pgw.ipv4.arp arpReplySent:count 0
attr recordingmode count
attr source arpReplySent
attr title "ARP replies sent, count"
scalar MultiCell.pgw.ipv4.arp arpReplySent:sum(packetBytes) 0
attr recordingmode sum(packetBytes)
attr source arpReplySent
attr title "ARP replies sent, sum(packetBytes)"
scalar MultiCell.pgw.ipv4.arp arpRequestSent:count 0
attr recordingmode count
attr source arpRequestSent
attr title "ARP request sent, count"
scalar MultiCell.pgw.ipv4.arp arpRequestSent:sum(packetBytes) 0
attr recordingmode sum(packetBytes)
attr source arpRequestSent
attr title "ARP request sent, sum(packetBytes)"
scalar MultiCell.pgw.ipv4.arp arpResolutionFailed:count 0
attr recordingmode count
attr title "ARP failed resolutions, count"
scalar MultiCell.pgw.ipv4.arp arpResolutionCompleted:count 0
attr recordingmode count
attr title "ARP completed resolutions, count"
scalar MultiCell.pgw.ipv4.arp arpResolutionInitiated:count 0
attr recordingmode count
attr title "ARP initiated resolutions, count"
par MultiCell.pgw.ipv4.lp typename "\"inet.common.MessageDispatcher\""
par MultiCell.pgw.ipv4.lp displayStringTextFormat "\"processed %p pk (%l)\""
par MultiCell.pgw.ipv4.lp forwardServiceRegistration true
par MultiCell.pgw.ipv4.lp forwardProtocolRegistration true
par MultiCell.pgw.ipv4 typename "\"inet.networklayer.ipv4.Ipv4NetworkLayer\""
par MultiCell.pgw.ipv4 forwarding true
par MultiCell.pgw.ipv4 multicastForwarding false
par MultiCell.pgw.ipv4 interfaceTableModule "\"MultiCell.pgw.interfaceTable\""
par MultiCell.pgw.ipv4 displayStringTextFormat "\"%i\""
par MultiCell.pgw.nl typename "\"inet.common.MessageDispatcher\""
par MultiCell.pgw.nl displayStringTextFormat "\"processed %p pk (%l)\""
par MultiCell.pgw.nl forwardServiceRegistration true
par MultiCell.pgw.nl forwardProtocolRegistration true
par MultiCell.pgw.pppIf.phys$i.channel typename "\"ned.IdealChannel\""
par MultiCell.pgw.pppIf.ppp.phys$o.channel typename "\"ned.IdealChannel\""
par MultiCell.pgw.pppIf.ppp.upperLayerOut.channel typename "\"ned.IdealChannel\""
par MultiCell.pgw.pppIf.upperLayerIn.channel typename "\"ned.IdealChannel\""
par MultiCell.pgw.pppIf.queue typename "\"inet.queueing.queue.DropTailQueue\""
par MultiCell.pgw.pppIf.queue displayStringTextFormat "\"contains %p pk (%l) pushed %u\\npulled %o removed %r dropped %d\""
par MultiCell.pgw.pppIf.queue packetCapacity 10000
par MultiCell.pgw.pppIf.queue dataCapacity -1b
attr unit b
par MultiCell.pgw.pppIf.queue dropperClass "\"inet::queueing::PacketAtCollectionEndDropper\""
par MultiCell.pgw.pppIf.queue comparatorClass "\"\""
par MultiCell.pgw.pppIf.queue bufferModule "\"\""
scalar MultiCell.pgw.pppIf.queue queueLength:last 0
attr autoWarmupFilter false
attr interpolationmode sample-hold
attr recordingmode last
attr source "warmup(atomic(constant0(packetPushEnded) + count(packetPushStarted) - count(packetPulled) - count(packetRemoved) - count(packetDropped)))"
attr title "queue length, last"
attr unit pk
scalar MultiCell.pgw.pppIf.queue queueLength:max 0
attr autoWarmupFilter false
attr interpolationmode sample-hold
attr recordingmode max
attr source "warmup(atomic(constant0(packetPushEnded) + count(packetPushStarted) - count(packetPulled) - count(packetRemoved) - count(packetDropped)))"
attr title "queue length, max"
attr unit pk
scalar MultiCell.pgw.pppIf.queue queueLength:timeavg 0
attr autoWarmupFilter false
attr interpolationmode sample-hold
attr recordingmode timeavg
attr source "warmup(atomic(constant0(packetPushEnded) + count(packetPushStarted) - count(packetPulled) - count(packetRemoved) - count(packetDropped)))"
attr title "queue length, timeavg"
attr unit pk
scalar MultiCell.pgw.pppIf.queue queueBitLength:last 0
attr autoWarmupFilter false
attr interpolationmode sample-hold
attr recordingmode last
attr source "warmup(atomic(constant0(packetPushEnded) + sum(packetLength(packetPushStarted)) - sum(packetLength(packetPulled)) - sum(packetLength(packetRemoved)) - sum(packetLength(packetDropped))))"
attr title "queue bit length, last"
attr unit b
scalar MultiCell.pgw.pppIf.queue queueBitLength:max 0
attr autoWarmupFilter false
attr interpolationmode sample-hold
attr recordingmode max
attr source "warmup(atomic(constant0(packetPushEnded) + sum(packetLength(packetPushStarted)) - sum(packetLength(packetPulled)) - sum(packetLength(packetRemoved)) - sum(packetLength(packetDropped))))"
attr title "queue bit length, max"
attr unit b
scalar MultiCell.pgw.pppIf.queue queueBitLength:timeavg 0
attr autoWarmupFilter false
attr interpolationmode sample-hold
attr recordingmode timeavg
attr source "warmup(atomic(constant0(packetPushEnded) + sum(packetLength(packetPushStarted)) - sum(packetLength(packetPulled)) - sum(packetLength(packetRemoved)) - sum(packetLength(packetDropped))))"
attr title "queue bit length, timeavg"
attr unit b
statistic MultiCell.pgw.pppIf.queue queueingTime:histogram
field count 0
field mean nan
field stddev nan
field min nan
field max nan
field sum 0
field sqrsum 0
attr interpolationmode none
attr recordingmode histogram
attr source queueingTime(packetPulled)
attr title "queueing times"
attr unit s
bin	-inf	0
bin	0	0
bin	1	0
scalar MultiCell.pgw.pppIf.queue outgoingPackets:count 0
attr recordingmode count
attr source packetPulled
attr title "outgoing packets, count"
attr unit pk
scalar MultiCell.pgw.pppIf.queue outgoingPacketLengths:sum 0
attr interpolationmode none
attr recordingmode sum
attr source packetLength(packetPulled)
attr title "outgoing packet lengths, sum"
attr unit b
statistic MultiCell.pgw.pppIf.queue outgoingPacketLengths:histogram
field count 0
field mean nan
field stddev nan
field min nan
field max nan
field sum 0
field sqrsum 0
attr interpolationmode none
attr recordingmode histogram
attr source packetLength(packetPulled)
attr title "outgoing packet lengths"
attr unit b
bin	-inf	0
bin	0	0
bin	1	0
statistic MultiCell.pgw.pppIf.queue flowQueueingTime:histogram
field count 0
field mean nan
field stddev nan
field min nan
field max nan
field sum 0
field sqrsum 0
attr interpolationmode none
attr recordingmode histogram
attr source queueingTime(demuxFlow(packetPulled))
attr title "flow queueing times"
attr unit s
bin	-inf	0
bin	0	0
bin	1	0
scalar MultiCell.pgw.pppIf.queue incomingPackets:count 0
attr recordingmode count
attr source packetPushStarted
attr title "incoming packets, count"
attr unit pk
scalar MultiCell.pgw.pppIf.queue incomingPacketLengths:sum 0
attr interpolationmode none
attr recordingmode sum
attr source packetLength(packetPushStarted)
attr title "incoming packet lengths, sum"
attr unit b
statistic MultiCell.pgw.pppIf.queue incomingPacketLengths:histogram
field count 0
field mean nan
field stddev nan
field min nan
field max nan
field sum 0
field sqrsum 0
attr interpolationmode none
attr recordingmode histogram
attr source packetLength(packetPushStarted)
attr title "incoming packet lengths"
attr unit b
bin	-inf	0
bin	0	0
bin	1	0
scalar MultiCell.pgw.pppIf.queue droppedPacketsQueueOverflow:count 0
attr interpolationmode none
attr recordingmode count
attr source packetDropReasonIsQueueOverflow(packetDropped)
attr title "dropped packets: queue overflow, count"
attr unit pk
scalar MultiCell.pgw.pppIf.queue droppedPacketLengthsQueueOverflow:sum 0
attr interpolationmode none
attr recordingmode sum
attr source packetLength(packetDropReasonIsQueueOverflow(packetDropped))
attr title "dropped packet lengths: queue overflow, sum"
attr unit b
par MultiCell.pgw.pppIf.ppp typename "\"inet.linklayer.ppp.Ppp\""
par MultiCell.pgw.pppIf.ppp interfaceTableModule "\"MultiCell.pgw.interfaceTable\""
par MultiCell.pgw.pppIf.ppp displayStringTextFormat "\"rate: %b\\nsent: %s, rcvd: %r\\nqueue: %q, drop: %d\""
par MultiCell.pgw.pppIf.ppp sendRawBytes false
par MultiCell.pgw.pppIf.ppp mtu 4470B
attr unit B
par MultiCell.pgw.pppIf.ppp stopOperationExtraTime -1s
attr unit s
par MultiCell.pgw.pppIf.ppp stopOperationTimeout 2s
attr unit s
scalar MultiCell.pgw.pppIf.ppp txPk:count 0
attr interpolationmode none
attr recordingmode count
attr source packetSentToLower
attr title "packets transmitted, count"
scalar MultiCell.pgw.pppIf.ppp txPk:sum(packetBytes) 0
attr interpolationmode none
attr recordingmode sum(packetBytes)
attr source packetSentToLower
attr title "packets transmitted, sum(packetBytes)"
scalar MultiCell.pgw.pppIf.ppp rcvdPkFromHl:count 0
attr interpolationmode none
attr recordingmode count
attr source packetReceivedFromUpper
attr title "packets received from higher layer, count"
scalar MultiCell.pgw.pppIf.ppp rcvdPkFromHl:sum(packetBytes) 0
attr interpolationmode none
attr recordingmode sum(packetBytes)
attr source packetReceivedFromUpper
attr title "packets received from higher layer, sum(packetBytes)"
scalar MultiCell.pgw.pppIf.ppp passedUpPk:count 0
attr interpolationmode none
attr recordingmode count
attr source packetSentToUpper
[...]
par MultiCell.ue22.cellularNic.channelModel[0] dynamic_los false
par MultiCell.ue22.cellularNic.channelModel[0] fixed_los false
par MultiCell.ue22.cellularNic.channelModel[0] fading false
par MultiCell.ue22.cellularNic.channelModel[0] fading_type "\"JAKES\""
par MultiCell.ue22.cellularNic.channelModel[0] fading_paths 6
par MultiCell.ue22.cellularNic.channelModel[0] delay_rms 3.63e-07
par MultiCell.ue22.cellularNic.channelModel[0] bgCell_interference true
par MultiCell.ue22.cellularNic.channelModel[0] extCell_interference true
par MultiCell.ue22.cellularNic.channelModel[0] downlink_interference false
par MultiCell.ue22.cellularNic.channelModel[0] uplink_interference false
par MultiCell.ue22.cellularNic.channelModel[0] d2d_interference true
par MultiCell.ue22.cellularNic.channelModel[0] enable_extCell_los true
par MultiCell.ue22.cellularNic.channelModel[0] useRsrqFromLog false
par MultiCell.ue22.cellularNic.channelModel[0] rsrqShift 22
par MultiCell.ue22.cellularNic.channelModel[0] rsrqScale 1
par MultiCell.ue22.cellularNic.channelModel[0] collectSinrStatistics true
scalar MultiCell.ue22.cellularNic.channelModel[0] distance:mean 260.18202129458
attr recordingmode mean
attr source distance
attr title "distance between UE and serving base station, mean"
attr unit meters
scalar MultiCell.ue22.cellularNic.channelModel[0] measuredSinrUl:mean 31.103067929567
attr recordingmode mean
attr source measuredSinrUl
attr title "SINR measured at feedback computation, UL, mean"
attr unit dB
scalar MultiCell.ue22.cellularNic.channelModel[0] measuredSinrDl:mean 43.103067929567
attr recordingmode mean
attr source measuredSinrDl
attr title "SINR measured at feedback computation, DL, mean"
attr unit dB
scalar MultiCell.ue22.cellularNic.channelModel[0] rcvdSinrUl:mean nan
attr recordingmode mean
attr source rcvdSinrUl
attr title "SINR measured at packet reception, UL, mean"
attr unit dB
scalar MultiCell.ue22.cellularNic.channelModel[0] rcvdSinrDl:mean nan
attr recordingmode mean
attr source rcvdSinrDl
attr title "SINR measured at packet reception, DL, mean"
attr unit dB
par MultiCell.ue22.cellularNic.dlFbGen typename "\"simu5g.stack.phy.feedback.LteDlFeedbackGenerator\""
par MultiCell.ue22.cellularNic.dlFbGen feedbackType "\"ALLBANDS\""
par MultiCell.ue22.cellularNic.dlFbGen rbAllocationType "\"localized\""
par MultiCell.ue22.cellularNic.dlFbGen fbPeriod 6
par MultiCell.ue22.cellularNic.dlFbGen fbDelay 1
par MultiCell.ue22.cellularNic.dlFbGen usePeriodic true
par MultiCell.ue22.cellularNic.dlFbGen initialTxMode "\"SINGLE_ANTENNA_PORT0\""
par MultiCell.ue22.cellularNic.dlFbGen feedbackGeneratorType "\"IDEAL\""
par MultiCell.ue22.cellularNic typename "\"simu5g.stack.LteNicUe\""
par MultiCell.ue22.cellularNic displayStringTextFormat "\"%a (%i)\\n%m\""
par MultiCell.ue22.cellularNic recordPcap false
par MultiCell.ue22.cellularNic numPcapRecorders 0
par MultiCell.ue22.cellularNic isWireless true
par MultiCell.ue22.cellularNic interfaceTableModule "\"MultiCell.ue22.interfaceTable\""
par MultiCell.ue22.cellularNic routingTableModule "\"^.ipv4.routingTable\""
par MultiCell.ue22.cellularNic LtePdcpRrcType "\"LtePdcpRrcUe\""
par MultiCell.ue22.cellularNic LteMacType "\"LteMacUe\""
par MultiCell.ue22.cellularNic PacketFlowManagerType "\"PacketFlowManagerUe\""
par MultiCell.ue22.cellularNic hasRNISupport false
par MultiCell.ue22.cellularNic LtePhyType "\"LtePhyUe\""
par MultiCell.ue22.cellularNic nodeType "\"UE\""
par MultiCell.ue22.cellularNic processingDelayIn 0s
attr unit s
par MultiCell.ue22.cellularNic processingDelayOut 0s
attr unit s
par MultiCell.ue22.cellularNic LteChannelModelType "\"LteRealisticChannelModel\""
par MultiCell.ue22.cellularNic d2dCapable false
par MultiCell.ue22.cellularNic dualConnectivityEnabled false
par MultiCell.ue22.cellularNic numCarriers 1
par MultiCell.ue22.cellularNic address "\"0A-AA-00-00-00-06\""
attr mutable ""
scalar MultiCell.ue22.cellularNic packetDropInterfaceDown:count 0
attr interpolationmode none
attr recordingmode count
attr source packetDropReasonIsInterfaceDown(packetDropped)
attr title "packet drops: interface down, count"
scalar MultiCell.ue22.cellularNic packetDropInterfaceDown:sum(packetBytes) 0
attr interpolationmode none
attr recordingmode sum(packetBytes)
attr source packetDropReasonIsInterfaceDown(packetDropped)
attr title "packet drops: interface down, sum(packetBytes)"
scalar MultiCell.ue22.cellularNic packetDropNoCarrier:count 0
attr interpolationmode none
attr recordingmode count
attr source packetDropReasonIsNoCarrier(packetDropped)
attr title "packet drops: no carrier, count"
scalar MultiCell.ue22.cellularNic packetDropNoCarrier:sum(packetBytes) 0
attr interpolationmode none
attr recordingmode sum(packetBytes)
attr source packetDropReasonIsNoCarrier(packetDropped)
attr title "packet drops: no carrier, sum(packetBytes)"
par MultiCell.ue22.encap typename "\"inet.linklayer.ethernet.basic.EthernetEncapsulation\""
par MultiCell.ue22.encap registerProtocol true
par MultiCell.ue22.encap interfaceTableModule "\"MultiCell.ue22.interfaceTable\""
par MultiCell.ue22.encap fcsMode "\"declared\""
attr enum declared,computed
par MultiCell.ue22.encap stopOperationExtraTime -1s
attr unit s
par MultiCell.ue22.encap stopOperationTimeout 2s
attr unit s
scalar MultiCell.ue22.encap decapPk:count 0
attr interpolationmode none
attr recordingmode count
attr source decapPk
attr title "packets decapsulated, count"
scalar MultiCell.ue22.encap decapPk:sum(packetBytes) 0
attr interpolationmode none
attr recordingmode sum(packetBytes)
attr source decapPk
attr title "packets decapsulated, sum(packetBytes)"
scalar MultiCell.ue22.encap encapPk:count 0
attr interpolationmode none
attr recordingmode count
attr source encapPk
attr title "packets encapsulated, count"
scalar MultiCell.ue22.encap encapPk:sum(packetBytes) 0
attr interpolationmode none
attr recordingmode sum(packetBytes)
attr source encapPk
attr title "packets encapsulated, sum(packetBytes)"
scalar MultiCell.ue22.encap pauseSent:count 0
attr recordingmode count
attr title "pause sent, count"
scalar MultiCell.ue22.encap pauseSent:sum 0
attr recordingmode sum
attr title "pause sent, sum"
par MultiCell.ue22.ipv4.transportIn.channel typename "\"ned.IdealChannel\""
par MultiCell.ue22.ipv4.up.out[0].channel typename "\"ned.IdealChannel\""
par MultiCell.ue22.ipv4.lp.out[2].channel typename "\"ned.IdealChannel\""
par MultiCell.ue22.ipv4.ifIn.channel typename "\"ned.IdealChannel\""
par MultiCell.ue22.ipv4.configurator typename "\"inet.networklayer.configurator.ipv4.Ipv4NodeConfigurator\""
par MultiCell.ue22.ipv4.configurator interfaceTableModule "\"MultiCell.ue22.interfaceTable\""
par MultiCell.ue22.ipv4.configurator routingTableModule "\"MultiCell.ue22.ipv4.routingTable\""
par MultiCell.ue22.ipv4.configurator networkConfiguratorModule "\"configurator\""
par MultiCell.ue22.ipv4.configurator configureRoutingTable true
par MultiCell.ue22.ipv4.routingTable typename "\"inet.networklayer.ipv4.Ipv4RoutingTable\""
par MultiCell.ue22.ipv4.routingTable interfaceTableModule "\"MultiCell.ue22.interfaceTable\""
par MultiCell.ue22.ipv4.routingTable routerId "\"auto\""
par MultiCell.ue22.ipv4.routingTable netmaskRoutes "\"*\""
par MultiCell.ue22.ipv4.routingTable forwarding false
par MultiCell.ue22.ipv4.routingTable multicastForwarding false
par MultiCell.ue22.ipv4.routingTable useAdminDist false
par MultiCell.ue22.ipv4.routingTable routingFile "\"\""
par MultiCell.ue22.ipv4.natTable typename "\"inet.networklayer.ipv4.Ipv4NatTable\""
par MultiCell.ue22.ipv4.natTable networkProtocolModule "\"^.ip\""
par MultiCell.ue22.ipv4.natTable config "<config/> at content:1"
par MultiCell.ue22.ipv4.up typename "\"inet.common.MessageDispatcher\""
par MultiCell.ue22.ipv4.up displayStringTextFormat "\"processed %p pk (%l)\""
par MultiCell.ue22.ipv4.up forwardServiceRegistration true
par MultiCell.ue22.ipv4.up forwardProtocolRegistration true
par MultiCell.ue22.ipv4.igmp typename "\"inet.networklayer.ipv4.Igmpv2\""
par MultiCell.ue22.ipv4.igmp interfaceTableModule "\"MultiCell.ue22.interfaceTable\""
par MultiCell.ue22.ipv4.igmp routingTableModule "\"MultiCell.ue22.ipv4.routingTable\""
par MultiCell.ue22.ipv4.igmp crcMode "\"declared\""
attr enum declared,computed
par MultiCell.ue22.ipv4.igmp enabled true
par MultiCell.ue22.ipv4.igmp robustnessVariable 2
par MultiCell.ue22.ipv4.igmp queryInterval 125s
attr unit s
par MultiCell.ue22.ipv4.igmp queryResponseInterval 10s
attr unit s
par MultiCell.ue22.ipv4.igmp groupMembershipInterval 260s
attr unit s
par MultiCell.ue22.ipv4.igmp otherQuerierPresentInterval 255s
attr unit s
par MultiCell.ue22.ipv4.igmp startupQueryInterval 31.25s
attr unit s
par MultiCell.ue22.ipv4.igmp startupQueryCount 2
par MultiCell.ue22.ipv4.igmp lastMemberQueryInterval 1s
attr unit s
par MultiCell.ue22.ipv4.igmp lastMemberQueryCount 2
par MultiCell.ue22.ipv4.igmp unsolicitedReportInterval 10s
attr unit s
par MultiCell.ue22.ipv4.icmp typename "\"inet.networklayer.ipv4.Icmp\""
par MultiCell.ue22.ipv4.icmp interfaceTableModule "\"MultiCell.ue22.interfaceTable\""
par MultiCell.ue22.ipv4.icmp routingTableModule "\"MultiCell.ue22.ipv4.routingTable\""
par MultiCell.ue22.ipv4.icmp crcMode "\"declared\""
attr enum declared,computed
attr mutable ""
par MultiCell.ue22.ipv4.icmp quoteLength 8B
attr mutable ""
attr unit B
par MultiCell.ue22.ipv4.mp typename "\"inet.common.MessageDispatcher\""
par MultiCell.ue22.ipv4.mp displayStringTextFormat "\"processed %p pk (%l)\""
par MultiCell.ue22.ipv4.mp forwardServiceRegistration true
par MultiCell.ue22.ipv4.mp forwardProtocolRegistration true
par MultiCell.ue22.ipv4.ip typename "\"inet.networklayer.ipv4.Ipv4\""
par MultiCell.ue22.ipv4.ip interfaceTableModule "\"MultiCell.ue22.interfaceTable\""
par MultiCell.ue22.ipv4.ip routingTableModule "\"MultiCell.ue22.ipv4.routingTable\""
par MultiCell.ue22.ipv4.ip arpModule "\"MultiCell.ue22.ipv4.arp\""
par MultiCell.ue22.ipv4.ip icmpModule "\"MultiCell.ue22.ipv4.icmp\""
par MultiCell.ue22.ipv4.ip crcMode "\"declared\""
attr enum declared,computed
par MultiCell.ue22.ipv4.ip timeToLive 32
par MultiCell.ue22.ipv4.ip multicastTimeToLive 32
par MultiCell.ue22.ipv4.ip fragmentTimeout 60s
attr unit s
par MultiCell.ue22.ipv4.ip limitedBroadcast false
par MultiCell.ue22.ipv4.ip directBroadcastInterfaces "\"\""
scalar MultiCell.ue22.ipv4.ip packetDropAddressResolutionFailed:count 0
attr interpolationmode none
attr recordingmode count
attr source packetDropReasonIsAddressResolutionFailed(packetDropped)
attr title "packet drop: address resolution failed, count"
scalar MultiCell.ue22.ipv4.ip packetDropAddressResolutionFailed:sum(packetBytes) 0
attr interpolationmode none
attr recordingmode sum(packetBytes)
attr source packetDropReasonIsAddressResolutionFailed(packetDropped)
attr title "packet drop: address resolution failed, sum(packetBytes)"
scalar MultiCell.ue22.ipv4.ip packetDropHopLimitReached:count 0
attr interpolationmode none
attr recordingmode count
attr source packetDropReasonIsHopLimitReached(packetDropped)
attr title "packet drop: hop limit reached, count"
scalar MultiCell.ue22.ipv4.ip packetDropHopLimitReached:sum(packetBytes) 0
attr interpolationmode none
attr recordingmode sum(packetBytes)
attr source packetDropReasonIsHopLimitReached(packetDropped)
attr title "packet drop: hop limit reached, sum(packetBytes)"
scalar MultiCell.ue22.ipv4.ip packetDropForwardingDisabled:count 0
attr interpolationmode none
attr recordingmode count
attr source packetDropReasonIsForwardingDisabled(packetDropped)
attr title "packet drop: forwarding disabled, count"
scalar MultiCell.ue22.ipv4.ip packetDropForwardingDisabled:sum(packetBytes) 0
attr interpolationmode none
attr recordingmode sum(packetBytes)
attr source packetDropReasonIsForwardingDisabled(packetDropped)
attr title "packet drop: forwarding disabled, sum(packetBytes)"
scalar MultiCell.ue22.ipv4.ip packetDropNoInterfaceFound:count 0
attr interpolationmode none
attr recordingmode count
attr source packetDropReasonIsNoInterfaceFound(packetDropped)
attr title "packet drop: no interface found, count"
scalar MultiCell.ue22.ipv4.ip packetDropNoInterfaceFound:sum(packetBytes) 0
attr interpolationmode none
attr recordingmode sum(packetBytes)
attr source packetDropReasonIsNoInterfaceFound(packetDropped)
attr title "packet drop: no interface found, sum(packetBytes)"
scalar MultiCell.ue22.ipv4.ip packetDropNoRouteFound:count 0
attr interpolationmode none
attr recordingmode count
attr source packetDropReasonIsNoRouteFound(packetDropped)
attr title "packet drop: no route found, count"
scalar MultiCell.ue22.ipv4.ip packetDropNoRouteFound:sum(packetBytes) 0
attr interpolationmode none
attr recordingmode sum(packetBytes)
attr source packetDropReasonIsNoRouteFound(packetDropped)
attr title "packet drop: no route found, sum(packetBytes)"
scalar MultiCell.ue22.ipv4.ip packetDropUndefined:count 0
attr interpolationmode none
attr recordingmode count
attr source packetDropReasonIsUndefined(packetDropped)
attr title "packet drop: undefined, count"
scalar MultiCell.ue22.ipv4.ip packetDropUndefined:sum(packetBytes) 0
attr interpolationmode none
attr recordingmode sum(packetBytes)
attr source packetDropReasonIsUndefined(packetDropped)
attr title "packet drop: undefined, sum(packetBytes)"
par MultiCell.ue22.ipv4.arp typename "\"inet.networklayer.arp.ipv4.Arp\""
par MultiCell.ue22.ipv4.arp interfaceTableModule "\"MultiCell.ue22.interfaceTable\""
par MultiCell.ue22.ipv4.arp routingTableModule "\"MultiCell.ue22.ipv4.routingTable\""
par MultiCell.ue22.ipv4.arp retryTimeout 1s
attr unit s
par MultiCell.ue22.ipv4.arp retryCount 3
par MultiCell.ue22.ipv4.arp cacheTimeout 120s
attr unit s
par MultiCell.ue22.ipv4.arp proxyArpInterfaces "\"*\""
scalar MultiCell.ue22.ipv4.arp arpReplySent:count 0
attr recordingmode count
attr source arpReplySent
attr title "ARP replies sent, count"
scalar MultiCell.ue22.ipv4.arp arpReplySent:sum(packetBytes) 0
attr recordingmode sum(packetBytes)
attr source arpReplySent
attr title "ARP replies sent, sum(packetBytes)"
scalar MultiCell.ue22.ipv4.arp arpRequestSent:count 0
attr recordingmode count
attr source arpRequestSent
attr title "ARP request sent, count"
scalar MultiCell.ue22.ipv4.arp arpRequestSent:sum(packetBytes) 0
attr recordingmode sum(packetBytes)
attr source arpRequestSent
attr title "ARP request sent, sum(packetBytes)"
scalar MultiCell.ue22.ipv4.arp arpResolutionFailed:count 0
attr recordingmode count
attr title "ARP failed resolutions, count"
scalar MultiCell.ue22.ipv4.arp arpResolutionCompleted:count 0
attr recordingmode count
attr title "ARP completed resolutions, count"
scalar MultiCell.ue22.ipv4.arp arpResolutionInitiated:count 0
attr recordingmode count
attr title "ARP initiated resolutions, count"
par MultiCell.ue22.ipv4.lp typename "\"inet.common.MessageDispatcher\""
par MultiCell.ue22.ipv4.lp displayStringTextFormat "\"processed %p pk (%l)\""
par MultiCell.ue22.ipv4.lp forwardServiceRegistration true
par MultiCell.ue22.ipv4.lp forwardProtocolRegistration true
par MultiCell.ue22.ipv4 typename "\"inet.networklayer.ipv4.Ipv4NetworkLayer\""
par MultiCell.ue22.ipv4 forwarding false
par MultiCell.ue22.ipv4 multicastForwarding false
par MultiCell.ue22.ipv4 interfaceTableModule "\"MultiCell.ue22.interfaceTable\""
par MultiCell.ue22.ipv4 displayStringTextFormat "\"%i\""
par MultiCell.ue22.udp typename "\"inet.transportlayer.udp.Udp\""
par MultiCell.ue22.udp interfaceTableModule "\"MultiCell.ue22.interfaceTable\""
par MultiCell.ue22.udp icmpModule "\"^.ipv4.icmp\""
par MultiCell.ue22.udp icmpv6Module "\"^.ipv6.icmpv6\""
par MultiCell.ue22.udp crcMode "\"declared\""
attr enum disabled,declared,computed
par MultiCell.ue22.udp defaultMulticastLoop true
scalar MultiCell.ue22.udp packetReceived:count 0
attr interpolationmode none
attr recordingmode count
attr source packetReceived
attr title "packets received, count"
scalar MultiCell.ue22.udp packetReceived:sum(packetBytes) 0
attr interpolationmode none
attr recordingmode sum(packetBytes)
attr source packetReceived
attr title "packets received, sum(packetBytes)"
scalar MultiCell.ue22.udp packetSent:count 0
attr interpolationmode none
attr recordingmode count
attr source packetSent
attr title "packets sent, count"
scalar MultiCell.ue22.udp packetSent:sum(packetBytes) 0
attr interpolationmode none
attr recordingmode sum(packetBytes)
attr source packetSent
attr title "packets sent, sum(packetBytes)"
scalar MultiCell.ue22.udp passedUpPk:count 0
attr interpolationmode none
attr recordingmode count
attr source packetSentToUpper
attr title "packets passed up, count"
scalar MultiCell.ue22.udp droppedPkWrongPort:count 0
attr interpolationmode none
attr recordingmode count
attr source packetDropReasonIsNoPortFound(packetDropped)
attr title "packets dropped (wrong port), count"
scalar MultiCell.ue22.udp droppedPkBadChecksum:count 0
attr interpolationmode none
attr recordingmode count
attr source packetDropReasonIsIncorrectlyReceived(packetDropped)
attr title "packets dropped (checksum error), count"
par MultiCell.ue22.tcp typename "\"inet.transportlayer.tcp.Tcp\""
par MultiCell.ue22.tcp crcMode "\"declared\""
attr enum declared,computed
par MultiCell.ue22.tcp advertisedWindow 7504
par MultiCell.ue22.tcp delayedAcksEnabled false
par MultiCell.ue22.tcp nagleEnabled true
par MultiCell.ue22.tcp limitedTransmitEnabled false
par MultiCell.ue22.tcp increasedIWEnabled false
par MultiCell.ue22.tcp sackSupport false
par MultiCell.ue22.tcp windowScalingSupport false
par MultiCell.ue22.tcp windowScalingFactor -1
par MultiCell.ue22.tcp timestampSupport false
par MultiCell.ue22.tcp mss 536
par MultiCell.ue22.tcp msl 120s
attr unit s
par MultiCell.ue22.tcp tcpAlgorithmClass "\"TcpReno\""
par MultiCell.ue22.tcp useDataNotification false
par MultiCell.ue22.tcp dupthresh 3
par MultiCell.ue22.tcp initialSsthresh 4294967295
par MultiCell.ue22.tcp stopOperationExtraTime 0s
attr unit s
par MultiCell.ue22.tcp stopOperationTimeout 2s
attr unit s
par MultiCell.ue22.tcp ecnWillingness false
par MultiCell.ue22.tcp dctcpGamma 0.0625
par MultiCell.ue22.at typename "\"inet.common.MessageDispatcher\""
par MultiCell.ue22.at displayStringTextFormat "\"processed %p pk (%l)\""
par MultiCell.ue22.at forwardServiceRegistration true
par MultiCell.ue22.at forwardProtocolRegistration true
par MultiCell.ue22.tn typename "\"inet.common.MessageDispatcher\""
par MultiCell.ue22.tn displayStringTextFormat "\"processed %p pk (%l)\""
par MultiCell.ue22.tn forwardServiceRegistration true
par MultiCell.ue22.tn forwardProtocolRegistration true
par MultiCell.ue22.nl typename "\"inet.common.MessageDispatcher\""
par MultiCell.ue22.nl displayStringTextFormat "\"processed %p pk (%l)\""
par MultiCell.ue22.nl forwardServiceRegistration true
par MultiCell.ue22.nl forwardProtocolRegistration true
par MultiCell.ue22 typename "\"simu5g.nodes.Ue\""
par MultiCell.ue22 numApps 0
par MultiCell.ue22 hasUdp true
par MultiCell.ue22 hasTcp true
par MultiCell.ue22 hasSctp false
par MultiCell.ue22 nodeType "\"UE\""
par MultiCell.ue22 masterId 2
attr mutable ""
par MultiCell.ue22 macNodeId 1028
attr mutable ""
par MultiCell.ue22 macCellId 2
attr mutable ""
par MultiCell.ue22 nicType "\"LteNicUe\""
par MultiCell.ue22 hasIpv4 true
par MultiCell.ue22 hasIpv6 false
par MultiCell.ue22 numEthInterfaces 0
par MultiCell.ue22 extHostAddress "\"\""
par MultiCell.ue22 numLoInterfaces 1
par MultiCell.ue22 numPcapRecorders 0
par MultiCell.ue22 hasRNISupport false
par MultiCell typename "\"finalproject.simulations.LTE.networks.MultiCell\""
par MultiCell numExtCells 0

